 Reference value :  0.00000e+00
No compatibility mode selected!


Circuit: * ldo netlist 

Doing analysis at TEMP = 85.000000 and TNOM = 27.000000


No. of Data Rows : 1
bg_out = 1.094045e+00
inn = 1.052707e+00
inp = 1.052680e+00
l1#branch = 0.000000e+00
ldo_out = 1.798432e+00
m.xm1.msky130_fd_pr__nfet_g5v0d10v5#body = 3.130978e-11
m.xm1.msky130_fd_pr__nfet_g5v0d10v5#dbody = 6.158901e-11
m.xm1.msky130_fd_pr__nfet_g5v0d10v5#sbody = 3.234030e-11
m.xm2.msky130_fd_pr__pfet_g5v0d10v5#body = 2.500000e+00
m.xm2.msky130_fd_pr__pfet_g5v0d10v5#dbody = 2.500000e+00
m.xm2.msky130_fd_pr__pfet_g5v0d10v5#sbody = 2.500000e+00
m.xm3.msky130_fd_pr__pfet_g5v0d10v5#body = 2.500000e+00
m.xm3.msky130_fd_pr__pfet_g5v0d10v5#dbody = 2.500000e+00
m.xm3.msky130_fd_pr__pfet_g5v0d10v5#sbody = 2.500000e+00
m.xm4.msky130_fd_pr__pfet_g5v0d10v5#body = 2.500000e+00
m.xm4.msky130_fd_pr__pfet_g5v0d10v5#dbody = 2.500000e+00
m.xm4.msky130_fd_pr__pfet_g5v0d10v5#sbody = 2.500000e+00
m.xm5.msky130_fd_pr__pfet_g5v0d10v5#body = 2.500000e+00
m.xm5.msky130_fd_pr__pfet_g5v0d10v5#dbody = 2.500000e+00
m.xm5.msky130_fd_pr__pfet_g5v0d10v5#sbody = 2.500000e+00
m.xm6.msky130_fd_pr__nfet_g5v0d10v5#body = 1.931897e-11
m.xm6.msky130_fd_pr__nfet_g5v0d10v5#dbody = 4.829730e-11
m.xm6.msky130_fd_pr__nfet_g5v0d10v5#sbody = 9.659598e-12
m.xm7.msky130_fd_pr__pfet_g5v0d10v5#body = 2.500000e+00
m.xm7.msky130_fd_pr__pfet_g5v0d10v5#dbody = 2.500000e+00
m.xm7.msky130_fd_pr__pfet_g5v0d10v5#sbody = 2.500000e+00
m.xm8.msky130_fd_pr__pfet_g5v0d10v5#body = 2.500000e+00
m.xm8.msky130_fd_pr__pfet_g5v0d10v5#dbody = 2.500000e+00
m.xm8.msky130_fd_pr__pfet_g5v0d10v5#sbody = 2.500000e+00
m.xm9.msky130_fd_pr__nfet_g5v0d10v5#body = 2.941406e-11
m.xm9.msky130_fd_pr__nfet_g5v0d10v5#dbody = 5.975003e-11
m.xm9.msky130_fd_pr__nfet_g5v0d10v5#sbody = 2.849203e-11
m.xm10.msky130_fd_pr__nfet_g5v0d10v5#body = 2.925959e-11
m.xm10.msky130_fd_pr__nfet_g5v0d10v5#dbody = 5.936388e-11
m.xm10.msky130_fd_pr__nfet_g5v0d10v5#sbody = 2.841479e-11
m.xm11.msky130_fd_pr__pfet_g5v0d10v5#body = 2.500000e+00
m.xm11.msky130_fd_pr__pfet_g5v0d10v5#dbody = 2.500000e+00
m.xm11.msky130_fd_pr__pfet_g5v0d10v5#sbody = 2.500000e+00
m.xm12.msky130_fd_pr__pfet_g5v0d10v5#body = 2.500000e+00
m.xm12.msky130_fd_pr__pfet_g5v0d10v5#dbody = 2.500000e+00
m.xm12.msky130_fd_pr__pfet_g5v0d10v5#sbody = 2.500000e+00
m.xm13.msky130_fd_pr__nfet_g5v0d10v5#body = 5.245353e-12
m.xm13.msky130_fd_pr__nfet_g5v0d10v5#dbody = 1.311331e-11
m.xm13.msky130_fd_pr__nfet_g5v0d10v5#sbody = 2.622744e-12
m.xm14.msky130_fd_pr__pfet_g5v0d10v5#body = 2.500000e+00
m.xm14.msky130_fd_pr__pfet_g5v0d10v5#dbody = 2.500000e+00
m.xm14.msky130_fd_pr__pfet_g5v0d10v5#sbody = 2.500000e+00
m.xm15.msky130_fd_pr__nfet_g5v0d10v5#body = 6.714462e-14
m.xm15.msky130_fd_pr__nfet_g5v0d10v5#dbody = 1.678573e-13
m.xm15.msky130_fd_pr__nfet_g5v0d10v5#sbody = 3.357660e-14
m.xm16.msky130_fd_pr__nfet_g5v0d10v5#body = 5.491144e-11
m.xm16.msky130_fd_pr__nfet_g5v0d10v5#dbody = 1.004583e-10
m.xm16.msky130_fd_pr__nfet_g5v0d10v5#sbody = 6.427599e-11
m.xm17.msky130_fd_pr__pfet_g5v0d10v5#body = 2.500000e+00
m.xm17.msky130_fd_pr__pfet_g5v0d10v5#dbody = 2.500000e+00
m.xm17.msky130_fd_pr__pfet_g5v0d10v5#sbody = 2.500000e+00
m.xm18.msky130_fd_pr__nfet_g5v0d10v5#body = 1.679404e-11
m.xm18.msky130_fd_pr__nfet_g5v0d10v5#dbody = 4.198503e-11
m.xm18.msky130_fd_pr__nfet_g5v0d10v5#sbody = 8.397100e-12
m.xm19.msky130_fd_pr__nfet_g5v0d10v5#body = 3.135368e-11
m.xm19.msky130_fd_pr__nfet_g5v0d10v5#dbody = 6.169877e-11
m.xm19.msky130_fd_pr__nfet_g5v0d10v5#sbody = 3.236225e-11
m.xm20.msky130_fd_pr__nfet_g5v0d10v5#body = 1.272806e-11
m.xm20.msky130_fd_pr__nfet_g5v0d10v5#dbody = 3.182007e-11
m.xm20.msky130_fd_pr__nfet_g5v0d10v5#sbody = 6.364105e-12
m.xm22.msky130_fd_pr__nfet_g5v0d10v5#body = 1.163638e-11
m.xm22.msky130_fd_pr__nfet_g5v0d10v5#dbody = 2.909083e-11
m.xm22.msky130_fd_pr__nfet_g5v0d10v5#sbody = 5.818298e-12
m.xm24.msky130_fd_pr__pfet_g5v0d10v5#body = 2.500000e+00
m.xm24.msky130_fd_pr__pfet_g5v0d10v5#dbody = 2.500000e+00
m.xm24.msky130_fd_pr__pfet_g5v0d10v5#sbody = 2.500000e+00
m.xm26.msky130_fd_pr__pfet_g5v0d10v5#body = 2.500000e+00
m.xm26.msky130_fd_pr__pfet_g5v0d10v5#dbody = 2.500000e+00
m.xm26.msky130_fd_pr__pfet_g5v0d10v5#sbody = 2.500000e+00
mir = 1.417261e+00
net1 = 6.225774e-01
net2 = 1.300289e-04
net3 = 6.963109e-01
net4 = 2.475573e-01
net5 = 1.420773e+00
net6 = 8.617650e-01
net7 = 6.962833e-01
net8 = 1.501081e+00
net9 = 1.513438e+00
net10 = 2.632225e-01
net11 = 1.187060e+00
net12 = 1.187060e+00
net13 = 0.000000e+00
out = 1.187060e+00
pos = 1.094174e+00
q.xq2.qsky130_fd_pr__pnp_05v5_w0p68l0p68#collcx = 3.025745e-03
q.xq3.qsky130_fd_pr__pnp_05v5_w0p68l0p68#collcx = 3.806988e-04
q.xq4.qsky130_fd_pr__pnp_05v5_w0p68l0p68#collcx = 3.806988e-04
q.xq8.qsky130_fd_pr__pnp_05v5_w0p68l0p68#collcx = 3.806988e-04
q.xq10.qsky130_fd_pr__pnp_05v5_w0p68l0p68#collcx = 3.806988e-04
q.xq12.qsky130_fd_pr__pnp_05v5_w0p68l0p68#collcx = 3.806988e-04
q.xq14.qsky130_fd_pr__pnp_05v5_w0p68l0p68#collcx = 3.806988e-04
q.xq16.qsky130_fd_pr__pnp_05v5_w0p68l0p68#collcx = 3.806988e-04
q.xq18.qsky130_fd_pr__pnp_05v5_w0p68l0p68#collcx = 3.806988e-04
vb = 8.617816e-01
vdd = 2.500000e+00
vs#branch = -1.00052e-01
vt#branch = 0.000000e+00
xc1.a = 0.000000e+00
xc1.b1 = 0.000000e+00
xc3.a = 1.187060e+00
xc3.b1 = 1.187060e+00
xr1.xsky130_fd_pr__res_xhigh_po_0p69.ra = 7.022057e-01
xr2.xsky130_fd_pr__res_xhigh_po_0p69.ra = 7.022334e-01
xr3.xsky130_fd_pr__res_xhigh_po_0p69.ra = 3.601887e-03
xr4.xsky130_fd_pr__res_xhigh_po_0p69.ra = 6.249638e-01
xr5.xsky130_fd_pr__res_xhigh_po_0p69.ra = 3.601736e-03
xr6.xsky130_fd_pr__res_xhigh_po_0p69.ra = 6.261939e-03
xr7.xsky130_fd_pr__res_xhigh_po_0p69.ra = 1.187060e+00
xr8.xsky130_fd_pr__res_xhigh_po_0p69.ra = 1.103687e+00
xr9.xsky130_fd_pr__res_xhigh_po_0p69.ra = 9.819293e-03
Doing analysis at TEMP = 85.000000 and TNOM = 27.000000


No. of Data Rows : 91
Error: no such vector PM
Note: Starting true gmin stepping
Trying gmin =   1.0000E-03 Note: One successful gmin step
Trying gmin =   1.0000E-04 Note: One successful gmin step
Trying gmin =   1.0000E-05 Note: One successful gmin step
Trying gmin =   1.0000E-06 Note: One successful gmin step
Trying gmin =   1.0000E-07 Note: One successful gmin step
Trying gmin =   1.0000E-08 Warning: Further gmin increment
Trying gmin =   5.6234E-08 Note: One successful gmin step
Trying gmin =   2.3714E-08 Note: One successful gmin step
Trying gmin =   6.4938E-09 Note: One successful gmin step
Trying gmin =   3.3982E-09 Note: One successful gmin step
Trying gmin =   1.2864E-09 Note: One successful gmin step
Trying gmin =   2.9961E-10 Note: One successful gmin step
Trying gmin =   3.3678E-11 Note: One successful gmin step
Trying gmin =   3.3678E-12 Note: One successful gmin step
Trying gmin =   1.0000E-12 Note: One successful gmin step
Note: True gmin stepping completed
 Reference value :  1.08000e+00
Error: measure  pm  (AT) : out of interval
 meas ac pm find p when vdb(ldo_out)=0 failed!

Doing analysis at TEMP = 85.000000 and TNOM = 27.000000


No. of Data Rows : 91
psrr100             =  -5.539368e+01
psrr100k            =  -2.516380e+01
Doing analysis at TEMP = 85.000000 and TNOM = 27.000000


No. of Data Rows : 86
temp_coeff = 3.296629e+01
Doing analysis at TEMP = 85.000000 and TNOM = 27.000000


No. of Data Rows : 141
vldo_sup_2          =  1.796913e+00
vldo_sup_2_8        =  1.798873e+00
line_reg = 2.450000e-03
Note: No ".plot", ".print", or ".fourier" lines; no simulations run
vin                 =  1.920247e+00
dropout = 1.562470e-01
