 Reference value :  0.00000e+00
No compatibility mode selected!


Circuit: * ldo netlist 

Doing analysis at TEMP = 27.000000 and TNOM = 27.000000


No. of Data Rows : 1
bg_out = 1.095926e+00
inn = 1.139485e+00
inp = 1.139423e+00
l1#branch = 0.000000e+00
ldo_out = 1.801000e+00
m.xm1.msky130_fd_pr__nfet_g5v0d10v5#body = 1.388981e-11
m.xm1.msky130_fd_pr__nfet_g5v0d10v5#dbody = 2.905206e-11
m.xm1.msky130_fd_pr__nfet_g5v0d10v5#sbody = 1.261738e-11
m.xm2.msky130_fd_pr__pfet_g5v0d10v5#body = 2.100000e+00
m.xm2.msky130_fd_pr__pfet_g5v0d10v5#dbody = 2.100000e+00
m.xm2.msky130_fd_pr__pfet_g5v0d10v5#sbody = 2.100000e+00
m.xm3.msky130_fd_pr__pfet_g5v0d10v5#body = 2.100000e+00
m.xm3.msky130_fd_pr__pfet_g5v0d10v5#dbody = 2.100000e+00
m.xm3.msky130_fd_pr__pfet_g5v0d10v5#sbody = 2.100000e+00
m.xm4.msky130_fd_pr__pfet_g5v0d10v5#body = 2.100000e+00
m.xm4.msky130_fd_pr__pfet_g5v0d10v5#dbody = 2.100000e+00
m.xm4.msky130_fd_pr__pfet_g5v0d10v5#sbody = 2.100000e+00
m.xm5.msky130_fd_pr__pfet_g5v0d10v5#body = 2.100000e+00
m.xm5.msky130_fd_pr__pfet_g5v0d10v5#dbody = 2.100000e+00
m.xm5.msky130_fd_pr__pfet_g5v0d10v5#sbody = 2.100000e+00
m.xm6.msky130_fd_pr__nfet_g5v0d10v5#body = 1.174503e-11
m.xm6.msky130_fd_pr__nfet_g5v0d10v5#dbody = 2.936258e-11
m.xm6.msky130_fd_pr__nfet_g5v0d10v5#sbody = 5.872522e-12
m.xm7.msky130_fd_pr__pfet_g5v0d10v5#body = 2.100000e+00
m.xm7.msky130_fd_pr__pfet_g5v0d10v5#dbody = 2.100000e+00
m.xm7.msky130_fd_pr__pfet_g5v0d10v5#sbody = 2.100000e+00
m.xm8.msky130_fd_pr__pfet_g5v0d10v5#body = 2.100000e+00
m.xm8.msky130_fd_pr__pfet_g5v0d10v5#dbody = 2.100000e+00
m.xm8.msky130_fd_pr__pfet_g5v0d10v5#sbody = 2.100000e+00
m.xm9.msky130_fd_pr__nfet_g5v0d10v5#body = 1.451691e-11
m.xm9.msky130_fd_pr__nfet_g5v0d10v5#dbody = 3.171645e-11
m.xm9.msky130_fd_pr__nfet_g5v0d10v5#sbody = 1.183429e-11
m.xm10.msky130_fd_pr__nfet_g5v0d10v5#body = 1.424315e-11
m.xm10.msky130_fd_pr__nfet_g5v0d10v5#dbody = 3.103204e-11
m.xm10.msky130_fd_pr__nfet_g5v0d10v5#sbody = 1.169740e-11
m.xm11.msky130_fd_pr__pfet_g5v0d10v5#body = 2.100000e+00
m.xm11.msky130_fd_pr__pfet_g5v0d10v5#dbody = 2.100000e+00
m.xm11.msky130_fd_pr__pfet_g5v0d10v5#sbody = 2.100000e+00
m.xm12.msky130_fd_pr__pfet_g5v0d10v5#body = 2.100000e+00
m.xm12.msky130_fd_pr__pfet_g5v0d10v5#dbody = 2.100000e+00
m.xm12.msky130_fd_pr__pfet_g5v0d10v5#sbody = 2.100000e+00
m.xm13.msky130_fd_pr__nfet_g5v0d10v5#body = 2.286559e-12
m.xm13.msky130_fd_pr__nfet_g5v0d10v5#dbody = 5.716387e-12
m.xm13.msky130_fd_pr__nfet_g5v0d10v5#sbody = 1.143289e-12
m.xm14.msky130_fd_pr__pfet_g5v0d10v5#body = 2.100000e+00
m.xm14.msky130_fd_pr__pfet_g5v0d10v5#dbody = 2.100000e+00
m.xm14.msky130_fd_pr__pfet_g5v0d10v5#sbody = 2.100000e+00
m.xm15.msky130_fd_pr__nfet_g5v0d10v5#body = 7.837605e-17
m.xm15.msky130_fd_pr__nfet_g5v0d10v5#dbody = 1.959363e-16
m.xm15.msky130_fd_pr__nfet_g5v0d10v5#sbody = 3.919183e-17
m.xm16.msky130_fd_pr__nfet_g5v0d10v5#body = 4.050225e-11
m.xm16.msky130_fd_pr__nfet_g5v0d10v5#dbody = 7.275982e-11
m.xm16.msky130_fd_pr__nfet_g5v0d10v5#sbody = 4.874695e-11
m.xm17.msky130_fd_pr__pfet_g5v0d10v5#body = 2.100000e+00
m.xm17.msky130_fd_pr__pfet_g5v0d10v5#dbody = 2.100000e+00
m.xm17.msky130_fd_pr__pfet_g5v0d10v5#sbody = 2.100000e+00
m.xm18.msky130_fd_pr__nfet_g5v0d10v5#body = 1.629355e-11
m.xm18.msky130_fd_pr__nfet_g5v0d10v5#dbody = 4.073367e-11
m.xm18.msky130_fd_pr__nfet_g5v0d10v5#sbody = 8.146789e-12
m.xm19.msky130_fd_pr__nfet_g5v0d10v5#body = 1.397278e-11
m.xm19.msky130_fd_pr__nfet_g5v0d10v5#dbody = 2.925948e-11
m.xm19.msky130_fd_pr__nfet_g5v0d10v5#sbody = 1.265886e-11
m.xm20.msky130_fd_pr__nfet_g5v0d10v5#body = 1.201615e-11
m.xm20.msky130_fd_pr__nfet_g5v0d10v5#dbody = 3.004037e-11
m.xm20.msky130_fd_pr__nfet_g5v0d10v5#sbody = 6.008088e-12
m.xm22.msky130_fd_pr__nfet_g5v0d10v5#body = 2.838948e-12
m.xm22.msky130_fd_pr__nfet_g5v0d10v5#dbody = 7.097366e-12
m.xm22.msky130_fd_pr__nfet_g5v0d10v5#sbody = 1.419479e-12
m.xm24.msky130_fd_pr__pfet_g5v0d10v5#body = 2.100000e+00
m.xm24.msky130_fd_pr__pfet_g5v0d10v5#dbody = 2.100000e+00
m.xm24.msky130_fd_pr__pfet_g5v0d10v5#sbody = 2.100000e+00
m.xm26.msky130_fd_pr__pfet_g5v0d10v5#body = 2.100000e+00
m.xm26.msky130_fd_pr__pfet_g5v0d10v5#dbody = 2.100000e+00
m.xm26.msky130_fd_pr__pfet_g5v0d10v5#sbody = 2.100000e+00
mir = 8.839385e-01
net1 = 7.251110e-01
net2 = 6.030411e-06
net3 = 7.846546e-01
net4 = 2.265512e-01
net5 = 8.905761e-01
net6 = 9.390379e-01
net7 = 7.845913e-01
net8 = 9.561795e-01
net9 = 9.780806e-01
net10 = 1.827943e-01
net11 = 1.303346e+00
net12 = 1.303346e+00
net13 = 0.000000e+00
out = 1.303346e+00
pos = 1.096162e+00
q.xq2.qsky130_fd_pr__pnp_05v5_w0p68l0p68#collcx = 2.092234e-03
q.xq3.qsky130_fd_pr__pnp_05v5_w0p68l0p68#collcx = 2.634905e-04
q.xq4.qsky130_fd_pr__pnp_05v5_w0p68l0p68#collcx = 2.634905e-04
q.xq8.qsky130_fd_pr__pnp_05v5_w0p68l0p68#collcx = 2.634905e-04
q.xq10.qsky130_fd_pr__pnp_05v5_w0p68l0p68#collcx = 2.634905e-04
q.xq12.qsky130_fd_pr__pnp_05v5_w0p68l0p68#collcx = 2.634905e-04
q.xq14.qsky130_fd_pr__pnp_05v5_w0p68l0p68#collcx = 2.634905e-04
q.xq16.qsky130_fd_pr__pnp_05v5_w0p68l0p68#collcx = 2.634905e-04
q.xq18.qsky130_fd_pr__pnp_05v5_w0p68l0p68#collcx = 2.634905e-04
vb = 9.611615e-01
vdd = 2.100000e+00
vs#branch = -1.71674e-04
vt#branch = 0.000000e+00
xc1.a = 0.000000e+00
xc1.b1 = 0.000000e+00
xc3.a = 1.303346e+00
xc3.b1 = 1.303346e+00
xr1.xsky130_fd_pr__res_xhigh_po_0p69.ra = 7.923430e-01
xr2.xsky130_fd_pr__res_xhigh_po_0p69.ra = 7.924063e-01
xr3.xsky130_fd_pr__res_xhigh_po_0p69.ra = 5.363002e-03
xr4.xsky130_fd_pr__res_xhigh_po_0p69.ra = 7.276466e-01
xr5.xsky130_fd_pr__res_xhigh_po_0p69.ra = 5.362541e-03
xr6.xsky130_fd_pr__res_xhigh_po_0p69.ra = 8.229084e-03
xr7.xsky130_fd_pr__res_xhigh_po_0p69.ra = 1.303346e+00
xr8.xsky130_fd_pr__res_xhigh_po_0p69.ra = 1.108671e+00
xr9.xsky130_fd_pr__res_xhigh_po_0p69.ra = 1.291391e-02
Doing analysis at TEMP = 27.000000 and TNOM = 27.000000


No. of Data Rows : 91
Note: Starting true gmin stepping
Trying gmin =   1.0000E-03 Note: One successful gmin step
Trying gmin =   1.0000E-04 Note: One successful gmin step
Trying gmin =   1.0000E-05 Note: One successful gmin step
Trying gmin =   1.0000E-06 Note: One successful gmin step
Trying gmin =   1.0000E-07 Note: One successful gmin step
Trying gmin =   1.0000E-08 Note: One successful gmin step
Trying gmin =   1.0000E-09 Note: One successful gmin step
Trying gmin =   1.0000E-10 Note: One successful gmin step
Trying gmin =   1.0000E-11 Note: One successful gmin step
Trying gmin =   1.0000E-12 Note: One successful gmin step
Trying gmin =   1.0000E-12 Note: One successful gmin step
Note: True gmin stepping completed
 Reference value :  2.34000e+00Note: Starting true gmin stepping
Trying gmin =   1.0000E-03 Note: One successful gmin step
Trying gmin =   1.0000E-04 Note: One successful gmin step
Trying gmin =   1.0000E-05 Note: One successful gmin step
Trying gmin =   1.0000E-06 Note: One successful gmin step
Trying gmin =   1.0000E-07 Note: One successful gmin step
Trying gmin =   1.0000E-08 Note: One successful gmin step
Trying gmin =   1.0000E-09 Warning: Further gmin increment
Trying gmin =   5.6234E-09 Note: One successful gmin step
Trying gmin =   2.3714E-09 Note: One successful gmin step
Trying gmin =   6.4938E-10 Warning: Further gmin increment
Trying gmin =   1.7154E-09 Note: One successful gmin step
Trying gmin =   1.0554E-09 Note: One successful gmin step
Trying gmin =   5.0937E-10 Warning: Further gmin increment
Trying gmin =   8.7970E-10 Note: One successful gmin step
Trying gmin =   6.6940E-10 Note: One successful gmin step
Trying gmin =   4.4433E-10 Note: One successful gmin step
Trying gmin =   2.4029E-10 Note: One successful gmin step
Trying gmin =   9.5562E-11 Note: One successful gmin step
Trying gmin =   2.3967E-11 Note: One successful gmin step
Trying gmin =   3.0102E-12 Note: One successful gmin step
Trying gmin =   1.0000E-12 Note: One successful gmin step
Note: True gmin stepping completed
 Reference value :  1.26000e+00Note: Starting true gmin stepping
Trying gmin =   1.0000E-03 Note: One successful gmin step
Trying gmin =   1.0000E-04 Note: One successful gmin step
Trying gmin =   1.0000E-05 Note: One successful gmin step
Trying gmin =   1.0000E-06 Note: One successful gmin step
Trying gmin =   1.0000E-07 Note: One successful gmin step
Trying gmin =   1.0000E-08 Note: One successful gmin step
Trying gmin =   1.0000E-09 Note: One successful gmin step
Trying gmin =   1.0000E-10 Warning: Further gmin increment
Trying gmin =   5.6234E-10 Warning: Further gmin increment
Trying gmin =   8.6596E-10 Note: One successful gmin step
Trying gmin =   6.9783E-10 Note: One successful gmin step
Trying gmin =   5.0481E-10 Note: One successful gmin step
Trying gmin =   3.1059E-10 Note: One successful gmin step
Trying gmin =   1.4989E-10 Note: One successful gmin step
Trying gmin =   5.0254E-11 Note: One successful gmin step
Trying gmin =   9.7557E-12 Note: One successful gmin step
Trying gmin =   1.0000E-12 Note: One successful gmin step
Note: True gmin stepping completed
pm                  =  6.588919e+01
Doing analysis at TEMP = 27.000000 and TNOM = 27.000000


No. of Data Rows : 91
psrr100             =  -7.371989e+01
psrr100k            =  -2.765613e+01
Doing analysis at TEMP = 27.000000 and TNOM = 27.000000


No. of Data Rows : 86
temp_coeff = 3.668275e+01
Doing analysis at TEMP = 27.000000 and TNOM = 27.000000


No. of Data Rows : 141
vldo_sup_2          =  1.999888e+00
vldo_sup_2_8        =  2.799898e+00
line_reg = 1.000012e+00
Note: No ".plot", ".print", or ".fourier" lines; no simulations run
vin                 =  1.764122e+00
dropout = 1.220000e-04
