 Reference value :  0.00000e+00
No compatibility mode selected!


Circuit: * ldo netlist 

Doing analysis at TEMP = 27.000000 and TNOM = 27.000000


No. of Data Rows : 1
bg_out = 1.095750e+00
inn = 1.139466e+00
inp = 1.139398e+00
l1#branch = -2.77556e-17
ldo_out = 1.800737e+00
m.xm1.msky130_fd_pr__nfet_g5v0d10v5#body = 1.695006e-11
m.xm1.msky130_fd_pr__nfet_g5v0d10v5#dbody = 3.785606e-11
m.xm1.msky130_fd_pr__nfet_g5v0d10v5#sbody = 1.299411e-11
m.xm2.msky130_fd_pr__pfet_g5v0d10v5#body = 2.300000e+00
m.xm2.msky130_fd_pr__pfet_g5v0d10v5#dbody = 2.300000e+00
m.xm2.msky130_fd_pr__pfet_g5v0d10v5#sbody = 2.300000e+00
m.xm3.msky130_fd_pr__pfet_g5v0d10v5#body = 2.300000e+00
m.xm3.msky130_fd_pr__pfet_g5v0d10v5#dbody = 2.300000e+00
m.xm3.msky130_fd_pr__pfet_g5v0d10v5#sbody = 2.300000e+00
m.xm4.msky130_fd_pr__pfet_g5v0d10v5#body = 2.300000e+00
m.xm4.msky130_fd_pr__pfet_g5v0d10v5#dbody = 2.300000e+00
m.xm4.msky130_fd_pr__pfet_g5v0d10v5#sbody = 2.300000e+00
m.xm5.msky130_fd_pr__pfet_g5v0d10v5#body = 2.300000e+00
m.xm5.msky130_fd_pr__pfet_g5v0d10v5#dbody = 2.300000e+00
m.xm5.msky130_fd_pr__pfet_g5v0d10v5#sbody = 2.300000e+00
m.xm6.msky130_fd_pr__nfet_g5v0d10v5#body = 1.239272e-11
m.xm6.msky130_fd_pr__nfet_g5v0d10v5#dbody = 3.098179e-11
m.xm6.msky130_fd_pr__nfet_g5v0d10v5#sbody = 6.196365e-12
m.xm7.msky130_fd_pr__pfet_g5v0d10v5#body = 2.300000e+00
m.xm7.msky130_fd_pr__pfet_g5v0d10v5#dbody = 2.300000e+00
m.xm7.msky130_fd_pr__pfet_g5v0d10v5#sbody = 2.300000e+00
m.xm8.msky130_fd_pr__pfet_g5v0d10v5#body = 2.300000e+00
m.xm8.msky130_fd_pr__pfet_g5v0d10v5#dbody = 2.300000e+00
m.xm8.msky130_fd_pr__pfet_g5v0d10v5#sbody = 2.300000e+00
m.xm9.msky130_fd_pr__nfet_g5v0d10v5#body = 1.767455e-11
m.xm9.msky130_fd_pr__nfet_g5v0d10v5#dbody = 4.074194e-11
m.xm9.msky130_fd_pr__nfet_g5v0d10v5#sbody = 1.228171e-11
m.xm10.msky130_fd_pr__nfet_g5v0d10v5#body = 1.733844e-11
m.xm10.msky130_fd_pr__nfet_g5v0d10v5#dbody = 3.990167e-11
m.xm10.msky130_fd_pr__nfet_g5v0d10v5#sbody = 1.211366e-11
m.xm11.msky130_fd_pr__pfet_g5v0d10v5#body = 2.300000e+00
m.xm11.msky130_fd_pr__pfet_g5v0d10v5#dbody = 2.300000e+00
m.xm11.msky130_fd_pr__pfet_g5v0d10v5#sbody = 2.300000e+00
m.xm12.msky130_fd_pr__pfet_g5v0d10v5#body = 2.300000e+00
m.xm12.msky130_fd_pr__pfet_g5v0d10v5#dbody = 2.300000e+00
m.xm12.msky130_fd_pr__pfet_g5v0d10v5#sbody = 2.300000e+00
m.xm13.msky130_fd_pr__nfet_g5v0d10v5#body = 1.720871e-12
m.xm13.msky130_fd_pr__nfet_g5v0d10v5#dbody = 4.302169e-12
m.xm13.msky130_fd_pr__nfet_g5v0d10v5#sbody = 8.604444e-13
m.xm14.msky130_fd_pr__pfet_g5v0d10v5#body = 2.300000e+00
m.xm14.msky130_fd_pr__pfet_g5v0d10v5#dbody = 2.300000e+00
m.xm14.msky130_fd_pr__pfet_g5v0d10v5#sbody = 2.300000e+00
m.xm15.msky130_fd_pr__nfet_g5v0d10v5#body = 1.808487e-15
m.xm15.msky130_fd_pr__nfet_g5v0d10v5#dbody = 4.521174e-15
m.xm15.msky130_fd_pr__nfet_g5v0d10v5#sbody = 9.042879e-16
m.xm16.msky130_fd_pr__nfet_g5v0d10v5#body = 4.300208e-11
m.xm16.msky130_fd_pr__nfet_g5v0d10v5#dbody = 7.900979e-11
m.xm16.msky130_fd_pr__nfet_g5v0d10v5#sbody = 4.999644e-11
m.xm17.msky130_fd_pr__pfet_g5v0d10v5#body = 2.300000e+00
m.xm17.msky130_fd_pr__pfet_g5v0d10v5#dbody = 2.300000e+00
m.xm17.msky130_fd_pr__pfet_g5v0d10v5#sbody = 2.300000e+00
m.xm18.msky130_fd_pr__nfet_g5v0d10v5#body = 1.653142e-11
m.xm18.msky130_fd_pr__nfet_g5v0d10v5#dbody = 4.132829e-11
m.xm18.msky130_fd_pr__nfet_g5v0d10v5#sbody = 8.265723e-12
m.xm19.msky130_fd_pr__nfet_g5v0d10v5#body = 1.706290e-11
m.xm19.msky130_fd_pr__nfet_g5v0d10v5#dbody = 3.813818e-11
m.xm19.msky130_fd_pr__nfet_g5v0d10v5#sbody = 1.305054e-11
m.xm20.msky130_fd_pr__nfet_g5v0d10v5#body = 1.302118e-11
m.xm20.msky130_fd_pr__nfet_g5v0d10v5#dbody = 3.255294e-11
m.xm20.msky130_fd_pr__nfet_g5v0d10v5#sbody = 6.510603e-12
m.xm22.msky130_fd_pr__nfet_g5v0d10v5#body = 2.262251e-12
m.xm22.msky130_fd_pr__nfet_g5v0d10v5#dbody = 5.655623e-12
m.xm22.msky130_fd_pr__nfet_g5v0d10v5#sbody = 1.131130e-12
m.xm24.msky130_fd_pr__pfet_g5v0d10v5#body = 2.300000e+00
m.xm24.msky130_fd_pr__pfet_g5v0d10v5#dbody = 2.300000e+00
m.xm24.msky130_fd_pr__pfet_g5v0d10v5#sbody = 2.300000e+00
m.xm26.msky130_fd_pr__pfet_g5v0d10v5#body = 2.300000e+00
m.xm26.msky130_fd_pr__pfet_g5v0d10v5#dbody = 2.300000e+00
m.xm26.msky130_fd_pr__pfet_g5v0d10v5#sbody = 2.300000e+00
mir = 1.174891e+00
net1 = 7.251081e-01
net2 = 1.391497e-04
net3 = 7.846508e-01
net4 = 1.804137e-01
net5 = 1.183919e+00
net6 = 9.908503e-01
net7 = 7.845819e-01
net8 = 1.249056e+00
net9 = 1.275945e+00
net10 = 1.375376e-01
net11 = 1.322371e+00
net12 = 1.322371e+00
net13 = 0.000000e+00
out = 1.322371e+00
pos = 1.096002e+00
q.xq2.qsky130_fd_pr__pnp_05v5_w0p68l0p68#collcx = 2.091981e-03
q.xq3.qsky130_fd_pr__pnp_05v5_w0p68l0p68#collcx = 2.634622e-04
q.xq4.qsky130_fd_pr__pnp_05v5_w0p68l0p68#collcx = 2.634622e-04
q.xq8.qsky130_fd_pr__pnp_05v5_w0p68l0p68#collcx = 2.634622e-04
q.xq10.qsky130_fd_pr__pnp_05v5_w0p68l0p68#collcx = 2.634622e-04
q.xq12.qsky130_fd_pr__pnp_05v5_w0p68l0p68#collcx = 2.634622e-04
q.xq14.qsky130_fd_pr__pnp_05v5_w0p68l0p68#collcx = 2.634622e-04
q.xq16.qsky130_fd_pr__pnp_05v5_w0p68l0p68#collcx = 2.634622e-04
q.xq18.qsky130_fd_pr__pnp_05v5_w0p68l0p68#collcx = 2.634622e-04
vb = 1.041561e+00
vdd = 2.300000e+00
vs#branch = -1.01244e-02
vt#branch = 0.000000e+00
xc1.a = 0.000000e+00
xc1.b1 = 0.000000e+00
xc3.a = 1.322371e+00
xc3.b1 = 1.322371e+00
xr1.xsky130_fd_pr__res_xhigh_po_0p69.ra = 7.923333e-01
xr2.xsky130_fd_pr__res_xhigh_po_0p69.ra = 7.924021e-01
xr3.xsky130_fd_pr__res_xhigh_po_0p69.ra = 5.362975e-03
xr4.xsky130_fd_pr__res_xhigh_po_0p69.ra = 7.276434e-01
xr5.xsky130_fd_pr__res_xhigh_po_0p69.ra = 5.362473e-03
xr6.xsky130_fd_pr__res_xhigh_po_0p69.ra = 8.227652e-03
xr7.xsky130_fd_pr__res_xhigh_po_0p69.ra = 1.322371e+00
xr8.xsky130_fd_pr__res_xhigh_po_0p69.ra = 1.108509e+00
xr9.xsky130_fd_pr__res_xhigh_po_0p69.ra = 1.291187e-02
Doing analysis at TEMP = 27.000000 and TNOM = 27.000000


No. of Data Rows : 91
Error: no such vector PM
 Reference value :  9.00000e+00Note: Starting true gmin stepping
Trying gmin =   1.0000E-03 Note: One successful gmin step
Trying gmin =   1.0000E-04 Note: One successful gmin step
Trying gmin =   1.0000E-05 Note: One successful gmin step
Trying gmin =   1.0000E-06 Warning: Further gmin increment
Trying gmin =   5.6234E-06 Note: One successful gmin step
Trying gmin =   2.3714E-06 Note: One successful gmin step
Trying gmin =   6.4938E-07 Warning: Further gmin increment
Trying gmin =   1.7154E-06 Warning: Further gmin increment
Trying gmin =   2.1870E-06 Note: One successful gmin step
Trying gmin =   1.9369E-06 Note: One successful gmin step
Trying gmin =   1.6144E-06 Note: One successful gmin step
Trying gmin =   1.2284E-06 Note: One successful gmin step
Trying gmin =   8.1541E-07 Note: One successful gmin step
Trying gmin =   4.4097E-07 Note: One successful gmin step
Trying gmin =   1.7537E-07 Warning: Further gmin increment
Trying gmin =   3.5018E-07 Note: One successful gmin step
Trying gmin =   2.4781E-07 Note: One successful gmin step
Trying gmin =   1.4753E-07 Note: One successful gmin step
Trying gmin =   6.7763E-08 Note: One successful gmin step
Trying gmin =   2.1095E-08 Note: One successful gmin step
Trying gmin =   3.6638E-09 Note: One successful gmin step
Trying gmin =   3.6638E-10 Note: One successful gmin step
Trying gmin =   3.6638E-11 Note: One successful gmin step
Trying gmin =   3.6638E-12 Note: One successful gmin step
Trying gmin =   1.0000E-12 Note: One successful gmin step
Note: True gmin stepping completed
 Reference value :  2.80000e+00 Reference value :  1.16000e+00Note: Starting true gmin stepping
Trying gmin =   1.0000E-03 Note: One successful gmin step
Trying gmin =   1.0000E-04 Note: One successful gmin step
Trying gmin =   1.0000E-05 Note: One successful gmin step
Trying gmin =   1.0000E-06 Note: One successful gmin step
Trying gmin =   1.0000E-07 Note: One successful gmin step
Trying gmin =   1.0000E-08 Note: One successful gmin step
Trying gmin =   3.1623E-09 Note: One successful gmin step
Trying gmin =   5.6234E-10 Note: One successful gmin step
Trying gmin =   5.6234E-11 Warning: Further gmin increment
Trying gmin =   3.1623E-10 Note: One successful gmin step
Trying gmin =   1.3335E-10 Note: One successful gmin step
Trying gmin =   3.6517E-11 Note: One successful gmin step
Trying gmin =   5.2330E-12 Warning: Further gmin increment
Trying gmin =   2.2468E-11 Note: One successful gmin step
Trying gmin =   1.0843E-11 Warning: Further gmin increment
Trying gmin =   1.8727E-11 Note: One successful gmin step
Trying gmin =   1.4250E-11 Note: One successful gmin step
Trying gmin =   9.4587E-12 Warning: Further gmin increment
Trying gmin =   1.2862E-11 Note: One successful gmin step
Trying gmin =   1.1030E-11 Warning: Further gmin increment
Trying gmin =   1.2377E-11 Note: One successful gmin step
Trying gmin =   1.2142E-11 Note: One successful gmin step
Trying gmin =   1.1797E-11 Note: One successful gmin step
Trying gmin =   1.1298E-11 Note: One successful gmin step
Trying gmin =   1.0589E-11 Note: One successful gmin step
Trying gmin =   9.6075E-12 Note: One successful gmin step
Trying gmin =   8.3034E-12 Note: One successful gmin step
Trying gmin =   6.6716E-12 Note: One successful gmin step
Trying gmin =   4.8049E-12 Note: One successful gmin step
Trying gmin =   2.9368E-12 Note: One successful gmin step
Trying gmin =   1.4033E-12 Note: One successful gmin step
Trying gmin =   1.0000E-12 Note: One successful gmin step
Note: True gmin stepping completed
 Reference value :  1.14000e+00Note: Starting true gmin stepping
Trying gmin =   1.0000E-03 Note: One successful gmin step
Trying gmin =   1.0000E-04 Note: One successful gmin step
Trying gmin =   1.0000E-05 Note: One successful gmin step
Trying gmin =   1.0000E-06 Note: One successful gmin step
Trying gmin =   1.0000E-07 Note: One successful gmin step
Trying gmin =   1.0000E-08 Note: One successful gmin step
Trying gmin =   1.0000E-09 Note: One successful gmin step
Trying gmin =   1.0000E-10 Note: One successful gmin step
Trying gmin =   1.0000E-11 Note: One successful gmin step
Trying gmin =   1.0000E-12 Warning: Further gmin increment
Trying gmin =   5.6234E-12 Warning: Further gmin increment
Trying gmin =   8.6596E-12 Warning: Further gmin increment
Trying gmin =   9.6466E-12 Warning: Further gmin increment
Trying gmin =   9.9105E-12 Note: One successful gmin step
Trying gmin =   9.7776E-12 Note: One successful gmin step
Trying gmin =   9.6466E-12 Note: One successful gmin step
Trying gmin =   9.4534E-12 Note: One successful gmin step
Trying gmin =   9.1707E-12 Note: One successful gmin step
Trying gmin =   8.7625E-12 Note: One successful gmin step
Trying gmin =   8.1840E-12 Note: One successful gmin step
Trying gmin =   7.3870E-12 Note: One successful gmin step
Trying gmin =   6.3347E-12 Note: One successful gmin step
Trying gmin =   5.0305E-12 Note: One successful gmin step
Trying gmin =   3.5600E-12 Note: One successful gmin step
Trying gmin =   2.1193E-12 Note: One successful gmin step
Trying gmin =   1.0000E-12 Note: One successful gmin step
Note: True gmin stepping completed
 Reference value :  1.12000e+00 Reference value :  5.60000e-01
Error: measure  pm  (AT) : out of interval
 meas ac pm find p when vdb(ldo_out)=0 failed!

Doing analysis at TEMP = 27.000000 and TNOM = 27.000000


No. of Data Rows : 91
psrr100             =  -7.737388e+01
psrr100k            =  -2.720091e+01
Doing analysis at TEMP = 27.000000 and TNOM = 27.000000


No. of Data Rows : 86
temp_coeff = 3.538808e+01
Doing analysis at TEMP = 27.000000 and TNOM = 27.000000


No. of Data Rows : 141
vldo_sup_2          =  1.800776e+00
vldo_sup_2_8        =  1.800699e+00
line_reg = 9.625000e-05
Note: No ".plot", ".print", or ".fourier" lines; no simulations run
vin                 =  1.778017e+00
dropout = 1.401700e-02
