 Reference value :  0.00000e+00
No compatibility mode selected!


Circuit: * ldo netlist 

Doing analysis at TEMP = 27.000000 and TNOM = 27.000000


No. of Data Rows : 1
bg_out = 1.094389e+00
inn = 1.137106e+00
inp = 1.137089e+00
l1#branch = 0.000000e+00
ldo_out = 1.799303e+00
m.xm1.msky130_fd_pr__nfet_g5v0d10v5#body = 1.999463e-11
m.xm1.msky130_fd_pr__nfet_g5v0d10v5#dbody = 4.351666e-11
m.xm1.msky130_fd_pr__nfet_g5v0d10v5#sbody = 1.646724e-11
m.xm2.msky130_fd_pr__pfet_g5v0d10v5#body = 2.500000e+00
m.xm2.msky130_fd_pr__pfet_g5v0d10v5#dbody = 2.500000e+00
m.xm2.msky130_fd_pr__pfet_g5v0d10v5#sbody = 2.500000e+00
m.xm3.msky130_fd_pr__pfet_g5v0d10v5#body = 2.500000e+00
m.xm3.msky130_fd_pr__pfet_g5v0d10v5#dbody = 2.500000e+00
m.xm3.msky130_fd_pr__pfet_g5v0d10v5#sbody = 2.500000e+00
m.xm4.msky130_fd_pr__pfet_g5v0d10v5#body = 2.500000e+00
m.xm4.msky130_fd_pr__pfet_g5v0d10v5#dbody = 2.500000e+00
m.xm4.msky130_fd_pr__pfet_g5v0d10v5#sbody = 2.500000e+00
m.xm5.msky130_fd_pr__pfet_g5v0d10v5#body = 2.500000e+00
m.xm5.msky130_fd_pr__pfet_g5v0d10v5#dbody = 2.500000e+00
m.xm5.msky130_fd_pr__pfet_g5v0d10v5#sbody = 2.500000e+00
m.xm6.msky130_fd_pr__nfet_g5v0d10v5#body = 1.137200e-11
m.xm6.msky130_fd_pr__nfet_g5v0d10v5#dbody = 2.842999e-11
m.xm6.msky130_fd_pr__nfet_g5v0d10v5#sbody = 5.686005e-12
m.xm7.msky130_fd_pr__pfet_g5v0d10v5#body = 2.500000e+00
m.xm7.msky130_fd_pr__pfet_g5v0d10v5#dbody = 2.500000e+00
m.xm7.msky130_fd_pr__pfet_g5v0d10v5#sbody = 2.500000e+00
m.xm8.msky130_fd_pr__pfet_g5v0d10v5#body = 2.500000e+00
m.xm8.msky130_fd_pr__pfet_g5v0d10v5#dbody = 2.500000e+00
m.xm8.msky130_fd_pr__pfet_g5v0d10v5#sbody = 2.500000e+00
m.xm9.msky130_fd_pr__nfet_g5v0d10v5#body = 2.059469e-11
m.xm9.msky130_fd_pr__nfet_g5v0d10v5#dbody = 4.609183e-11
m.xm9.msky130_fd_pr__nfet_g5v0d10v5#sbody = 1.569218e-11
m.xm10.msky130_fd_pr__nfet_g5v0d10v5#body = 2.036718e-11
m.xm10.msky130_fd_pr__nfet_g5v0d10v5#dbody = 4.552309e-11
m.xm10.msky130_fd_pr__nfet_g5v0d10v5#sbody = 1.557842e-11
m.xm11.msky130_fd_pr__pfet_g5v0d10v5#body = 2.500000e+00
m.xm11.msky130_fd_pr__pfet_g5v0d10v5#dbody = 2.500000e+00
m.xm11.msky130_fd_pr__pfet_g5v0d10v5#sbody = 2.500000e+00
m.xm12.msky130_fd_pr__pfet_g5v0d10v5#body = 2.500000e+00
m.xm12.msky130_fd_pr__pfet_g5v0d10v5#dbody = 2.500000e+00
m.xm12.msky130_fd_pr__pfet_g5v0d10v5#sbody = 2.500000e+00
m.xm13.msky130_fd_pr__nfet_g5v0d10v5#body = 2.696057e-12
m.xm13.msky130_fd_pr__nfet_g5v0d10v5#dbody = 6.740132e-12
m.xm13.msky130_fd_pr__nfet_g5v0d10v5#sbody = 1.348040e-12
m.xm14.msky130_fd_pr__pfet_g5v0d10v5#body = 2.500000e+00
m.xm14.msky130_fd_pr__pfet_g5v0d10v5#dbody = 2.500000e+00
m.xm14.msky130_fd_pr__pfet_g5v0d10v5#sbody = 2.500000e+00
m.xm15.msky130_fd_pr__nfet_g5v0d10v5#body = 1.357187e-15
m.xm15.msky130_fd_pr__nfet_g5v0d10v5#dbody = 3.392872e-15
m.xm15.msky130_fd_pr__nfet_g5v0d10v5#sbody = 6.786875e-16
m.xm16.msky130_fd_pr__nfet_g5v0d10v5#body = 4.547248e-11
m.xm16.msky130_fd_pr__nfet_g5v0d10v5#dbody = 8.524489e-11
m.xm16.msky130_fd_pr__nfet_g5v0d10v5#sbody = 5.117254e-11
m.xm17.msky130_fd_pr__pfet_g5v0d10v5#body = 2.500000e+00
m.xm17.msky130_fd_pr__pfet_g5v0d10v5#dbody = 2.500000e+00
m.xm17.msky130_fd_pr__pfet_g5v0d10v5#sbody = 2.500000e+00
m.xm18.msky130_fd_pr__nfet_g5v0d10v5#body = 1.875428e-11
m.xm18.msky130_fd_pr__nfet_g5v0d10v5#dbody = 4.686306e-11
m.xm18.msky130_fd_pr__nfet_g5v0d10v5#sbody = 9.377154e-12
m.xm19.msky130_fd_pr__nfet_g5v0d10v5#body = 2.002488e-11
m.xm19.msky130_fd_pr__nfet_g5v0d10v5#dbody = 4.359227e-11
m.xm19.msky130_fd_pr__nfet_g5v0d10v5#sbody = 1.648237e-11
m.xm20.msky130_fd_pr__nfet_g5v0d10v5#body = 1.139429e-11
m.xm20.msky130_fd_pr__nfet_g5v0d10v5#dbody = 2.848571e-11
m.xm20.msky130_fd_pr__nfet_g5v0d10v5#sbody = 5.697158e-12
m.xm22.msky130_fd_pr__nfet_g5v0d10v5#body = 3.237676e-12
m.xm22.msky130_fd_pr__nfet_g5v0d10v5#dbody = 8.094186e-12
m.xm22.msky130_fd_pr__nfet_g5v0d10v5#sbody = 1.618843e-12
m.xm24.msky130_fd_pr__pfet_g5v0d10v5#body = 2.500000e+00
m.xm24.msky130_fd_pr__pfet_g5v0d10v5#dbody = 2.500000e+00
m.xm24.msky130_fd_pr__pfet_g5v0d10v5#sbody = 2.500000e+00
m.xm26.msky130_fd_pr__pfet_g5v0d10v5#body = 2.500000e+00
m.xm26.msky130_fd_pr__pfet_g5v0d10v5#dbody = 2.500000e+00
m.xm26.msky130_fd_pr__pfet_g5v0d10v5#sbody = 2.500000e+00
mir = 1.340428e+00
net1 = 7.215548e-01
net2 = 1.044379e-04
net3 = 7.815451e-01
net4 = 2.584511e-01
net5 = 1.342847e+00
net6 = 9.091969e-01
net7 = 7.815277e-01
net8 = 1.413343e+00
net9 = 1.431542e+00
net10 = 2.155558e-01
net11 = 1.499308e+00
net12 = 1.499308e+00
net13 = 0.000000e+00
out = 1.499308e+00
pos = 1.094551e+00
q.xq2.qsky130_fd_pr__pnp_05v5_w0p68l0p68#collcx = 2.339239e-03
q.xq3.qsky130_fd_pr__pnp_05v5_w0p68l0p68#collcx = 2.940001e-04
q.xq4.qsky130_fd_pr__pnp_05v5_w0p68l0p68#collcx = 2.940001e-04
q.xq8.qsky130_fd_pr__pnp_05v5_w0p68l0p68#collcx = 2.940001e-04
q.xq10.qsky130_fd_pr__pnp_05v5_w0p68l0p68#collcx = 2.940001e-04
q.xq12.qsky130_fd_pr__pnp_05v5_w0p68l0p68#collcx = 2.940001e-04
q.xq14.qsky130_fd_pr__pnp_05v5_w0p68l0p68#collcx = 2.940001e-04
q.xq16.qsky130_fd_pr__pnp_05v5_w0p68l0p68#collcx = 2.940001e-04
q.xq18.qsky130_fd_pr__pnp_05v5_w0p68l0p68#collcx = 2.940001e-04
vb = 9.114142e-01
vdd = 2.500000e+00
vs#branch = -1.01301e-02
vt#branch = 0.000000e+00
xc1.a = 0.000000e+00
xc1.b1 = 0.000000e+00
xc3.a = 1.499308e+00
xc3.b1 = 1.499308e+00
xr1.xsky130_fd_pr__res_xhigh_po_0p69.ra = 7.844978e-01
xr2.xsky130_fd_pr__res_xhigh_po_0p69.ra = 7.845152e-01
xr3.xsky130_fd_pr__res_xhigh_po_0p69.ra = 2.048295e-03
xr4.xsky130_fd_pr__res_xhigh_po_0p69.ra = 7.225318e-01
xr5.xsky130_fd_pr__res_xhigh_po_0p69.ra = 2.048247e-03
xr6.xsky130_fd_pr__res_xhigh_po_0p69.ra = 3.151444e-03
xr7.xsky130_fd_pr__res_xhigh_po_0p69.ra = 1.499308e+00
xr8.xsky130_fd_pr__res_xhigh_po_0p69.ra = 1.099338e+00
xr9.xsky130_fd_pr__res_xhigh_po_0p69.ra = 4.940895e-03
Doing analysis at TEMP = 27.000000 and TNOM = 27.000000


No. of Data Rows : 91
Error: no such vector PM
Note: Starting true gmin stepping
Trying gmin =   1.0000E-03 Note: One successful gmin step
Trying gmin =   1.0000E-04 Note: One successful gmin step
Trying gmin =   1.0000E-05 Note: One successful gmin step
Trying gmin =   1.0000E-06 Note: One successful gmin step
Trying gmin =   1.0000E-07 Note: One successful gmin step
Trying gmin =   1.0000E-08 Warning: Further gmin increment
Trying gmin =   5.6234E-08 Warning: Further gmin increment
Trying gmin =   8.6596E-08 Note: One successful gmin step
Trying gmin =   6.9783E-08 Warning: Further gmin increment
Trying gmin =   8.2047E-08 Warning: Further gmin increment
Trying gmin =   8.5436E-08 Note: One successful gmin step
Trying gmin =   8.3724E-08 Warning: Further gmin increment
Trying gmin =   8.5005E-08 Note: One successful gmin step
Trying gmin =   8.4362E-08 Note: One successful gmin step
Trying gmin =   8.3407E-08 Warning: Further gmin increment
Trying gmin =   8.4122E-08 Note: One successful gmin step
Trying gmin =   8.3764E-08 Warning: Further gmin increment
Trying gmin =   8.4033E-08 Warning: Further gmin increment
Trying gmin =   8.4100E-08 Note: One successful gmin step
Trying gmin =   8.4066E-08 Warning: Further gmin increment
Trying gmin =   8.4092E-08 Warning: Further gmin increment
Trying gmin =   8.4098E-08 Note: One successful gmin step
Trying gmin =   8.4095E-08 Warning: Last gmin step failed
Warning: True gmin stepping failed
Note: Starting dynamic gmin stepping
Trying gmin =   1.0000E-03 Note: One successful gmin step
Trying gmin =   1.0000E-04 Note: One successful gmin step
Trying gmin =   1.0000E-05 Note: One successful gmin step
Trying gmin =   1.0000E-06 Warning: Further gmin increment
Trying gmin =   5.6234E-06 Note: One successful gmin step
Trying gmin =   3.1623E-06 Note: One successful gmin step
Trying gmin =   1.3335E-06 Warning: Further gmin increment
Trying gmin =   2.5483E-06 Note: One successful gmin step
Trying gmin =   1.8434E-06 Note: One successful gmin step
Trying gmin =   1.1342E-06 Warning: Further gmin increment
Trying gmin =   1.6326E-06 Note: One successful gmin step
Trying gmin =   1.4460E-06 Warning: Further gmin increment
Trying gmin =   1.5838E-06 Note: One successful gmin step
Trying gmin =   1.5133E-06 Note: One successful gmin step
Trying gmin =   1.4134E-06 Note: One successful gmin step
Trying gmin =   1.2758E-06 Note: One successful gmin step
Trying gmin =   1.0940E-06 Note: One successful gmin step
Trying gmin =   8.6880E-07 Note: One successful gmin step
Trying gmin =   6.1482E-07 Note: One successful gmin step
Trying gmin =   3.6601E-07 Note: One successful gmin step
Trying gmin =   1.6812E-07 Note: One successful gmin step
Trying gmin =   5.2335E-08 Note: One successful gmin step
Trying gmin =   9.0899E-09 Note: One successful gmin step
Trying gmin =   9.0899E-10 Note: One successful gmin step
Trying gmin =   9.0899E-11 Note: One successful gmin step
Trying gmin =   9.0899E-12 Note: One successful gmin step
Trying gmin =   1.0000E-12 Note: One successful gmin step
Note: Dynamic gmin stepping completed
 Reference value :  2.80000e+00Note: Starting true gmin stepping
Trying gmin =   1.0000E-03 Note: One successful gmin step
Trying gmin =   1.0000E-04 Note: One successful gmin step
Trying gmin =   1.0000E-05 Note: One successful gmin step
Trying gmin =   1.0000E-06 Note: One successful gmin step
Trying gmin =   1.0000E-07 Note: One successful gmin step
Trying gmin =   1.0000E-08 Warning: Further gmin increment
Trying gmin =   5.6234E-08 Note: One successful gmin step
Trying gmin =   2.3714E-08 Note: One successful gmin step
Trying gmin =   6.4938E-09 Warning: Further gmin increment
Trying gmin =   1.7154E-08 Note: One successful gmin step
Trying gmin =   1.0554E-08 Note: One successful gmin step
Trying gmin =   6.4938E-09 Note: One successful gmin step
Trying gmin =   3.1340E-09 Warning: Further gmin increment
Trying gmin =   5.4125E-09 Note: One successful gmin step
Trying gmin =   4.1186E-09 Note: One successful gmin step
Trying gmin =   2.7338E-09 Note: One successful gmin step
Trying gmin =   1.4784E-09 Note: One successful gmin step
Trying gmin =   5.8796E-10 Note: One successful gmin step
Trying gmin =   1.4746E-10 Note: One successful gmin step
Trying gmin =   1.8521E-11 Note: One successful gmin step
Trying gmin =   1.8521E-12 Note: One successful gmin step
Trying gmin =   1.0000E-12 Note: One successful gmin step
Note: True gmin stepping completed
 Reference value :  1.24000e+00Note: Starting true gmin stepping
Trying gmin =   1.0000E-03 Note: One successful gmin step
Trying gmin =   1.0000E-04 Note: One successful gmin step
Trying gmin =   1.0000E-05 Note: One successful gmin step
Trying gmin =   1.0000E-06 Note: One successful gmin step
Trying gmin =   1.0000E-07 Note: One successful gmin step
Trying gmin =   1.0000E-08 Note: One successful gmin step
Trying gmin =   1.0000E-09 Warning: Further gmin increment
Trying gmin =   5.6234E-09 Warning: Further gmin increment
Trying gmin =   8.6596E-09 Note: One successful gmin step
Trying gmin =   6.9783E-09 Note: One successful gmin step
Trying gmin =   5.0481E-09 Note: One successful gmin step
Trying gmin =   3.1059E-09 Warning: Further gmin increment
Trying gmin =   4.4709E-09 Note: One successful gmin step
Trying gmin =   3.7264E-09 Warning: Further gmin increment
Trying gmin =   4.2718E-09 Note: One successful gmin step
Trying gmin =   3.9898E-09 Note: One successful gmin step
Trying gmin =   3.6013E-09 Note: One successful gmin step
Trying gmin =   3.0883E-09 Note: One successful gmin step
Trying gmin =   2.4525E-09 Note: One successful gmin step
Trying gmin =   1.7355E-09 Note: One successful gmin step
Trying gmin =   1.0332E-09 Note: One successful gmin step
Trying gmin =   4.7457E-10 Note: One successful gmin step
Trying gmin =   1.4773E-10 Note: One successful gmin step
Trying gmin =   2.5659E-11 Note: One successful gmin step
Trying gmin =   2.5659E-12 Note: One successful gmin step
Trying gmin =   1.0000E-12 Note: One successful gmin step
Note: True gmin stepping completed
 Reference value :  1.22000e+00
Error: measure  pm  (AT) : out of interval
 meas ac pm find p when vdb(ldo_out)=0 failed!

Doing analysis at TEMP = 27.000000 and TNOM = 27.000000


No. of Data Rows : 91
psrr100             =  -7.270806e+01
psrr100k            =  -2.854121e+01
Doing analysis at TEMP = 27.000000 and TNOM = 27.000000


No. of Data Rows : 86
temp_coeff = 5.614745e+01
Doing analysis at TEMP = 27.000000 and TNOM = 27.000000


No. of Data Rows : 141
vldo_sup_2          =  1.799465e+00
vldo_sup_2_8        =  1.799249e+00
line_reg = 2.700000e-04
Note: No ".plot", ".print", or ".fourier" lines; no simulations run
vin                 =  1.778486e+00
dropout = 1.448600e-02
