 Reference value :  0.00000e+00
No compatibility mode selected!


Circuit: * ldo netlist 

Doing analysis at TEMP = 85.000000 and TNOM = 27.000000


No. of Data Rows : 1
bg_out = 1.096192e+00
inn = 1.058252e+00
inp = 1.058152e+00
l1#branch = 0.000000e+00
ldo_out = 1.801751e+00
m.xm1.msky130_fd_pr__nfet_g5v0d10v5#body = 3.084875e-11
m.xm1.msky130_fd_pr__nfet_g5v0d10v5#dbody = 6.225149e-11
m.xm1.msky130_fd_pr__nfet_g5v0d10v5#sbody = 3.029434e-11
m.xm2.msky130_fd_pr__pfet_g5v0d10v5#body = 2.500000e+00
m.xm2.msky130_fd_pr__pfet_g5v0d10v5#dbody = 2.500000e+00
m.xm2.msky130_fd_pr__pfet_g5v0d10v5#sbody = 2.500000e+00
m.xm3.msky130_fd_pr__pfet_g5v0d10v5#body = 2.500000e+00
m.xm3.msky130_fd_pr__pfet_g5v0d10v5#dbody = 2.500000e+00
m.xm3.msky130_fd_pr__pfet_g5v0d10v5#sbody = 2.500000e+00
m.xm4.msky130_fd_pr__pfet_g5v0d10v5#body = 2.500000e+00
m.xm4.msky130_fd_pr__pfet_g5v0d10v5#dbody = 2.500000e+00
m.xm4.msky130_fd_pr__pfet_g5v0d10v5#sbody = 2.500000e+00
m.xm5.msky130_fd_pr__pfet_g5v0d10v5#body = 2.500000e+00
m.xm5.msky130_fd_pr__pfet_g5v0d10v5#dbody = 2.500000e+00
m.xm5.msky130_fd_pr__pfet_g5v0d10v5#sbody = 2.500000e+00
m.xm6.msky130_fd_pr__nfet_g5v0d10v5#body = 2.047190e-11
m.xm6.msky130_fd_pr__nfet_g5v0d10v5#dbody = 5.117965e-11
m.xm6.msky130_fd_pr__nfet_g5v0d10v5#sbody = 1.023606e-11
m.xm7.msky130_fd_pr__pfet_g5v0d10v5#body = 2.500000e+00
m.xm7.msky130_fd_pr__pfet_g5v0d10v5#dbody = 2.500000e+00
m.xm7.msky130_fd_pr__pfet_g5v0d10v5#sbody = 2.500000e+00
m.xm8.msky130_fd_pr__pfet_g5v0d10v5#body = 2.500000e+00
m.xm8.msky130_fd_pr__pfet_g5v0d10v5#dbody = 2.500000e+00
m.xm8.msky130_fd_pr__pfet_g5v0d10v5#sbody = 2.500000e+00
m.xm9.msky130_fd_pr__nfet_g5v0d10v5#body = 2.898590e-11
m.xm9.msky130_fd_pr__nfet_g5v0d10v5#dbody = 6.064089e-11
m.xm9.msky130_fd_pr__nfet_g5v0d10v5#sbody = 2.631490e-11
m.xm10.msky130_fd_pr__nfet_g5v0d10v5#body = 2.872288e-11
m.xm10.msky130_fd_pr__nfet_g5v0d10v5#dbody = 5.998408e-11
m.xm10.msky130_fd_pr__nfet_g5v0d10v5#sbody = 2.618339e-11
m.xm11.msky130_fd_pr__pfet_g5v0d10v5#body = 2.500000e+00
m.xm11.msky130_fd_pr__pfet_g5v0d10v5#dbody = 2.500000e+00
m.xm11.msky130_fd_pr__pfet_g5v0d10v5#sbody = 2.500000e+00
m.xm12.msky130_fd_pr__pfet_g5v0d10v5#body = 2.500000e+00
m.xm12.msky130_fd_pr__pfet_g5v0d10v5#dbody = 2.500000e+00
m.xm12.msky130_fd_pr__pfet_g5v0d10v5#sbody = 2.500000e+00
m.xm13.msky130_fd_pr__nfet_g5v0d10v5#body = 4.270382e-12
m.xm13.msky130_fd_pr__nfet_g5v0d10v5#dbody = 1.067589e-11
m.xm13.msky130_fd_pr__nfet_g5v0d10v5#sbody = 2.135251e-12
m.xm14.msky130_fd_pr__pfet_g5v0d10v5#body = 2.500000e+00
m.xm14.msky130_fd_pr__pfet_g5v0d10v5#dbody = 2.500000e+00
m.xm14.msky130_fd_pr__pfet_g5v0d10v5#sbody = 2.500000e+00
m.xm15.msky130_fd_pr__nfet_g5v0d10v5#body = 1.660026e-13
m.xm15.msky130_fd_pr__nfet_g5v0d10v5#dbody = 4.150018e-13
m.xm15.msky130_fd_pr__nfet_g5v0d10v5#sbody = 8.300589e-14
m.xm16.msky130_fd_pr__nfet_g5v0d10v5#body = 5.510671e-11
m.xm16.msky130_fd_pr__nfet_g5v0d10v5#dbody = 1.006819e-10
m.xm16.msky130_fd_pr__nfet_g5v0d10v5#sbody = 6.463821e-11
m.xm17.msky130_fd_pr__pfet_g5v0d10v5#body = 2.500000e+00
m.xm17.msky130_fd_pr__pfet_g5v0d10v5#dbody = 2.500000e+00
m.xm17.msky130_fd_pr__pfet_g5v0d10v5#sbody = 2.500000e+00
m.xm18.msky130_fd_pr__nfet_g5v0d10v5#body = 1.725878e-11
m.xm18.msky130_fd_pr__nfet_g5v0d10v5#dbody = 4.314686e-11
m.xm18.msky130_fd_pr__nfet_g5v0d10v5#sbody = 8.629463e-12
m.xm19.msky130_fd_pr__nfet_g5v0d10v5#body = 3.101379e-11
m.xm19.msky130_fd_pr__nfet_g5v0d10v5#dbody = 6.266394e-11
m.xm19.msky130_fd_pr__nfet_g5v0d10v5#sbody = 3.037686e-11
m.xm20.msky130_fd_pr__nfet_g5v0d10v5#body = 1.452892e-11
m.xm20.msky130_fd_pr__nfet_g5v0d10v5#dbody = 3.632222e-11
m.xm20.msky130_fd_pr__nfet_g5v0d10v5#sbody = 7.264535e-12
m.xm22.msky130_fd_pr__nfet_g5v0d10v5#body = 1.071194e-11
m.xm22.msky130_fd_pr__nfet_g5v0d10v5#dbody = 2.677975e-11
m.xm22.msky130_fd_pr__nfet_g5v0d10v5#sbody = 5.356067e-12
m.xm24.msky130_fd_pr__pfet_g5v0d10v5#body = 2.500000e+00
m.xm24.msky130_fd_pr__pfet_g5v0d10v5#dbody = 2.500000e+00
m.xm24.msky130_fd_pr__pfet_g5v0d10v5#sbody = 2.500000e+00
m.xm26.msky130_fd_pr__pfet_g5v0d10v5#body = 2.500000e+00
m.xm26.msky130_fd_pr__pfet_g5v0d10v5#dbody = 2.500000e+00
m.xm26.msky130_fd_pr__pfet_g5v0d10v5#sbody = 2.500000e+00
mir = 1.447942e+00
net1 = 6.283428e-01
net2 = 3.211986e-04
net3 = 7.016103e-01
net4 = 1.720606e-01
net5 = 1.461139e+00
net6 = 9.489618e-01
net7 = 7.015090e-01
net8 = 1.531585e+00
net9 = 1.552597e+00
net10 = 1.808315e-01
net11 = 1.219201e+00
net12 = 1.219201e+00
net13 = 0.000000e+00
out = 1.219201e+00
pos = 1.096408e+00
q.xq2.qsky130_fd_pr__pnp_05v5_w0p68l0p68#collcx = 2.835790e-03
q.xq3.qsky130_fd_pr__pnp_05v5_w0p68l0p68#collcx = 3.577987e-04
q.xq4.qsky130_fd_pr__pnp_05v5_w0p68l0p68#collcx = 3.577987e-04
q.xq8.qsky130_fd_pr__pnp_05v5_w0p68l0p68#collcx = 3.577987e-04
q.xq10.qsky130_fd_pr__pnp_05v5_w0p68l0p68#collcx = 3.577987e-04
q.xq12.qsky130_fd_pr__pnp_05v5_w0p68l0p68#collcx = 3.577987e-04
q.xq14.qsky130_fd_pr__pnp_05v5_w0p68l0p68#collcx = 3.577987e-04
q.xq16.qsky130_fd_pr__pnp_05v5_w0p68l0p68#collcx = 3.577987e-04
q.xq18.qsky130_fd_pr__pnp_05v5_w0p68l0p68#collcx = 3.577987e-04
vb = 1.000812e+00
vdd = 2.500000e+00
vs#branch = -1.00229e-01
vt#branch = 0.000000e+00
xc1.a = 0.000000e+00
xc1.b1 = 0.000000e+00
xc3.a = 1.219201e+00
xc3.b1 = 1.219201e+00
xr1.xsky130_fd_pr__res_xhigh_po_0p69.ra = 7.099285e-01
xr2.xsky130_fd_pr__res_xhigh_po_0p69.ra = 7.100298e-01
xr3.xsky130_fd_pr__res_xhigh_po_0p69.ra = 5.152299e-03
xr4.xsky130_fd_pr__res_xhigh_po_0p69.ra = 6.317072e-01
xr5.xsky130_fd_pr__res_xhigh_po_0p69.ra = 5.151512e-03
xr6.xsky130_fd_pr__res_xhigh_po_0p69.ra = 8.904474e-03
xr7.xsky130_fd_pr__res_xhigh_po_0p69.ra = 1.219201e+00
xr8.xsky130_fd_pr__res_xhigh_po_0p69.ra = 1.109939e+00
xr9.xsky130_fd_pr__res_xhigh_po_0p69.ra = 1.396861e-02
Doing analysis at TEMP = 85.000000 and TNOM = 27.000000


No. of Data Rows : 91
Error: no such vector PM
Note: Starting true gmin stepping
Trying gmin =   1.0000E-03 Note: One successful gmin step
Trying gmin =   1.0000E-04 Note: One successful gmin step
Trying gmin =   1.0000E-05 Note: One successful gmin step
Trying gmin =   1.0000E-06 Warning: Further gmin increment
Trying gmin =   5.6234E-06 Note: One successful gmin step
Trying gmin =   2.3714E-06 Note: One successful gmin step
Trying gmin =   6.4938E-07 Warning: Further gmin increment
Trying gmin =   1.7154E-06 Note: One successful gmin step
Trying gmin =   1.0554E-06 Note: One successful gmin step
Trying gmin =   5.0937E-07 Note: One successful gmin step
Trying gmin =   1.7077E-07 Note: One successful gmin step
Trying gmin =   3.3152E-08 Note: One successful gmin step
Trying gmin =   3.3152E-09 Note: One successful gmin step
Trying gmin =   3.3152E-10 Note: One successful gmin step
Trying gmin =   3.3152E-11 Note: One successful gmin step
Trying gmin =   3.3152E-12 Note: One successful gmin step
Trying gmin =   1.0000E-12 Note: One successful gmin step
Note: True gmin stepping completed
 Reference value :  2.80000e+00Note: Starting true gmin stepping
Trying gmin =   1.0000E-03 Note: One successful gmin step
Trying gmin =   1.0000E-04 Note: One successful gmin step
Trying gmin =   1.0000E-05 Note: One successful gmin step
Trying gmin =   1.0000E-06 Note: One successful gmin step
Trying gmin =   1.0000E-07 Note: One successful gmin step
Trying gmin =   1.0000E-08 Note: One successful gmin step
Trying gmin =   1.0000E-09 Note: One successful gmin step
Trying gmin =   1.0000E-10 Warning: Further gmin increment
Trying gmin =   5.6234E-10 Note: One successful gmin step
Trying gmin =   2.3714E-10 Note: One successful gmin step
Trying gmin =   6.4938E-11 Warning: Further gmin increment
Trying gmin =   1.7154E-10 Note: One successful gmin step
Trying gmin =   1.0554E-10 Note: One successful gmin step
Trying gmin =   5.0937E-11 Note: One successful gmin step
Trying gmin =   1.7077E-11 Note: One successful gmin step
Trying gmin =   3.3152E-12 Note: One successful gmin step
Trying gmin =   1.0000E-12 Note: One successful gmin step
Note: True gmin stepping completed
Note: Starting true gmin stepping
Trying gmin =   1.0000E-03 Note: One successful gmin step
Trying gmin =   1.0000E-04 Note: One successful gmin step
Trying gmin =   1.0000E-05 Note: One successful gmin step
Trying gmin =   1.0000E-06 Note: One successful gmin step
Trying gmin =   1.0000E-07 Note: One successful gmin step
Trying gmin =   1.0000E-08 Note: One successful gmin step
Trying gmin =   1.0000E-09 Note: One successful gmin step
Trying gmin =   1.0000E-10 Warning: Further gmin increment
Trying gmin =   5.6234E-10 Note: One successful gmin step
Trying gmin =   3.1623E-10 Note: One successful gmin step
Trying gmin =   1.3335E-10 Warning: Further gmin increment
Trying gmin =   2.5483E-10 Note: One successful gmin step
Trying gmin =   1.8434E-10 Note: One successful gmin step
Trying gmin =   1.1342E-10 Warning: Further gmin increment
Trying gmin =   1.6326E-10 Note: One successful gmin step
Trying gmin =   1.3608E-10 Note: One successful gmin step
Trying gmin =   1.0355E-10 Note: One successful gmin step
Trying gmin =   6.8732E-11 Note: One successful gmin step
Trying gmin =   3.7170E-11 Note: One successful gmin step
Trying gmin =   1.4782E-11 Note: One successful gmin step
Trying gmin =   3.7073E-12 Note: One successful gmin step
Trying gmin =   1.0000E-12 Note: One successful gmin step
Note: True gmin stepping completed
 Reference value :  1.02000e+00
Error: measure  pm  (AT) : out of interval
 meas ac pm find p when vdb(ldo_out)=0 failed!

Doing analysis at TEMP = 85.000000 and TNOM = 27.000000


No. of Data Rows : 91
psrr100             =  -5.408775e+01
psrr100k            =  -2.296050e+01
Doing analysis at TEMP = 85.000000 and TNOM = 27.000000


No. of Data Rows : 86
temp_coeff = 3.086456e+01
Doing analysis at TEMP = 85.000000 and TNOM = 27.000000


No. of Data Rows : 141
vldo_sup_2          =  1.800046e+00
vldo_sup_2_8        =  1.802241e+00
line_reg = 2.743750e-03
Note: No ".plot", ".print", or ".fourier" lines; no simulations run
vin                 =  1.916107e+00
dropout = 1.521070e-01
