 Reference value :  0.00000e+00
No compatibility mode selected!


Circuit: * ldo netlist 

Doing analysis at TEMP = 27.000000 and TNOM = 27.000000


No. of Data Rows : 1
bg_out = 1.098801e+00
inn = 1.144253e+00
inp = 1.144193e+00
l1#branch = 0.000000e+00
ldo_out = 1.806669e+00
m.xm1.msky130_fd_pr__nfet_g5v0d10v5#body = 1.933690e-11
m.xm1.msky130_fd_pr__nfet_g5v0d10v5#dbody = 4.380667e-11
m.xm1.msky130_fd_pr__nfet_g5v0d10v5#sbody = 1.420398e-11
m.xm2.msky130_fd_pr__pfet_g5v0d10v5#body = 2.500000e+00
m.xm2.msky130_fd_pr__pfet_g5v0d10v5#dbody = 2.500000e+00
m.xm2.msky130_fd_pr__pfet_g5v0d10v5#sbody = 2.500000e+00
m.xm3.msky130_fd_pr__pfet_g5v0d10v5#body = 2.500000e+00
m.xm3.msky130_fd_pr__pfet_g5v0d10v5#dbody = 2.500000e+00
m.xm3.msky130_fd_pr__pfet_g5v0d10v5#sbody = 2.500000e+00
m.xm4.msky130_fd_pr__pfet_g5v0d10v5#body = 2.500000e+00
m.xm4.msky130_fd_pr__pfet_g5v0d10v5#dbody = 2.500000e+00
m.xm4.msky130_fd_pr__pfet_g5v0d10v5#sbody = 2.500000e+00
m.xm5.msky130_fd_pr__pfet_g5v0d10v5#body = 2.500000e+00
m.xm5.msky130_fd_pr__pfet_g5v0d10v5#dbody = 2.500000e+00
m.xm5.msky130_fd_pr__pfet_g5v0d10v5#sbody = 2.500000e+00
m.xm6.msky130_fd_pr__nfet_g5v0d10v5#body = 1.249471e-11
m.xm6.msky130_fd_pr__nfet_g5v0d10v5#dbody = 3.123676e-11
m.xm6.msky130_fd_pr__nfet_g5v0d10v5#sbody = 6.247359e-12
m.xm7.msky130_fd_pr__pfet_g5v0d10v5#body = 2.500000e+00
m.xm7.msky130_fd_pr__pfet_g5v0d10v5#dbody = 2.500000e+00
m.xm7.msky130_fd_pr__pfet_g5v0d10v5#sbody = 2.500000e+00
m.xm8.msky130_fd_pr__pfet_g5v0d10v5#body = 2.500000e+00
m.xm8.msky130_fd_pr__pfet_g5v0d10v5#dbody = 2.500000e+00
m.xm8.msky130_fd_pr__pfet_g5v0d10v5#sbody = 2.500000e+00
m.xm9.msky130_fd_pr__nfet_g5v0d10v5#body = 2.009310e-11
m.xm9.msky130_fd_pr__nfet_g5v0d10v5#dbody = 4.679714e-11
m.xm9.msky130_fd_pr__nfet_g5v0d10v5#sbody = 1.348108e-11
m.xm10.msky130_fd_pr__nfet_g5v0d10v5#body = 1.976469e-11
m.xm10.msky130_fd_pr__nfet_g5v0d10v5#dbody = 4.597664e-11
m.xm10.msky130_fd_pr__nfet_g5v0d10v5#sbody = 1.331687e-11
m.xm11.msky130_fd_pr__pfet_g5v0d10v5#body = 2.500000e+00
m.xm11.msky130_fd_pr__pfet_g5v0d10v5#dbody = 2.500000e+00
m.xm11.msky130_fd_pr__pfet_g5v0d10v5#sbody = 2.500000e+00
m.xm12.msky130_fd_pr__pfet_g5v0d10v5#body = 2.500000e+00
m.xm12.msky130_fd_pr__pfet_g5v0d10v5#dbody = 2.500000e+00
m.xm12.msky130_fd_pr__pfet_g5v0d10v5#sbody = 2.500000e+00
m.xm13.msky130_fd_pr__nfet_g5v0d10v5#body = 1.715917e-12
m.xm13.msky130_fd_pr__nfet_g5v0d10v5#dbody = 4.289783e-12
m.xm13.msky130_fd_pr__nfet_g5v0d10v5#sbody = 8.579681e-13
m.xm14.msky130_fd_pr__pfet_g5v0d10v5#body = 2.500000e+00
m.xm14.msky130_fd_pr__pfet_g5v0d10v5#dbody = 2.500000e+00
m.xm14.msky130_fd_pr__pfet_g5v0d10v5#sbody = 2.500000e+00
m.xm15.msky130_fd_pr__nfet_g5v0d10v5#body = 4.045638e-15
m.xm15.msky130_fd_pr__nfet_g5v0d10v5#dbody = 1.011399e-14
m.xm15.msky130_fd_pr__nfet_g5v0d10v5#sbody = 2.022920e-15
m.xm16.msky130_fd_pr__nfet_g5v0d10v5#body = 4.556192e-11
m.xm16.msky130_fd_pr__nfet_g5v0d10v5#dbody = 8.528971e-11
m.xm16.msky130_fd_pr__nfet_g5v0d10v5#sbody = 5.139604e-11
m.xm17.msky130_fd_pr__pfet_g5v0d10v5#body = 2.500000e+00
m.xm17.msky130_fd_pr__pfet_g5v0d10v5#dbody = 2.500000e+00
m.xm17.msky130_fd_pr__pfet_g5v0d10v5#sbody = 2.500000e+00
m.xm18.msky130_fd_pr__nfet_g5v0d10v5#body = 1.459504e-11
m.xm18.msky130_fd_pr__nfet_g5v0d10v5#dbody = 3.648757e-11
m.xm18.msky130_fd_pr__nfet_g5v0d10v5#sbody = 7.297531e-12
m.xm19.msky130_fd_pr__nfet_g5v0d10v5#body = 1.944745e-11
m.xm19.msky130_fd_pr__nfet_g5v0d10v5#dbody = 4.408302e-11
m.xm19.msky130_fd_pr__nfet_g5v0d10v5#sbody = 1.425925e-11
m.xm20.msky130_fd_pr__nfet_g5v0d10v5#body = 1.313157e-11
m.xm20.msky130_fd_pr__nfet_g5v0d10v5#dbody = 3.282890e-11
m.xm20.msky130_fd_pr__nfet_g5v0d10v5#sbody = 6.565797e-12
m.xm22.msky130_fd_pr__nfet_g5v0d10v5#body = 2.270474e-12
m.xm22.msky130_fd_pr__nfet_g5v0d10v5#dbody = 5.676179e-12
m.xm22.msky130_fd_pr__nfet_g5v0d10v5#sbody = 1.135242e-12
m.xm24.msky130_fd_pr__pfet_g5v0d10v5#body = 2.500000e+00
m.xm24.msky130_fd_pr__pfet_g5v0d10v5#dbody = 2.500000e+00
m.xm24.msky130_fd_pr__pfet_g5v0d10v5#sbody = 2.500000e+00
m.xm26.msky130_fd_pr__pfet_g5v0d10v5#body = 2.500000e+00
m.xm26.msky130_fd_pr__pfet_g5v0d10v5#dbody = 2.500000e+00
m.xm26.msky130_fd_pr__pfet_g5v0d10v5#sbody = 2.500000e+00
mir = 1.365179e+00
net1 = 7.274404e-01
net2 = 3.113184e-04
net3 = 7.873003e-01
net4 = 1.810715e-01
net5 = 1.374022e+00
net6 = 9.990092e-01
net7 = 7.872388e-01
net8 = 1.443531e+00
net9 = 1.469782e+00
net10 = 1.371413e-01
net11 = 1.167470e+00
net12 = 1.167470e+00
net13 = 0.000000e+00
out = 1.167470e+00
pos = 1.099031e+00
q.xq2.qsky130_fd_pr__pnp_05v5_w0p68l0p68#collcx = 2.276016e-03
q.xq3.qsky130_fd_pr__pnp_05v5_w0p68l0p68#collcx = 2.868569e-04
q.xq4.qsky130_fd_pr__pnp_05v5_w0p68l0p68#collcx = 2.868569e-04
q.xq8.qsky130_fd_pr__pnp_05v5_w0p68l0p68#collcx = 2.868569e-04
q.xq10.qsky130_fd_pr__pnp_05v5_w0p68l0p68#collcx = 2.868569e-04
q.xq12.qsky130_fd_pr__pnp_05v5_w0p68l0p68#collcx = 2.868569e-04
q.xq14.qsky130_fd_pr__pnp_05v5_w0p68l0p68#collcx = 2.868569e-04
q.xq16.qsky130_fd_pr__pnp_05v5_w0p68l0p68#collcx = 2.868569e-04
q.xq18.qsky130_fd_pr__pnp_05v5_w0p68l0p68#collcx = 2.868569e-04
vb = 1.050392e+00
vdd = 2.500000e+00
vs#branch = -1.00502e-01
vt#branch = 0.000000e+00
xc1.a = 0.000000e+00
xc1.b1 = 0.000000e+00
xc3.a = 1.167470e+00
xc3.b1 = 1.167470e+00
xr1.xsky130_fd_pr__res_xhigh_po_0p69.ra = 7.902207e-01
xr2.xsky130_fd_pr__res_xhigh_po_0p69.ra = 7.902822e-01
xr3.xsky130_fd_pr__res_xhigh_po_0p69.ra = 2.064372e-03
xr4.xsky130_fd_pr__res_xhigh_po_0p69.ra = 7.284146e-01
xr5.xsky130_fd_pr__res_xhigh_po_0p69.ra = 2.064200e-03
xr6.xsky130_fd_pr__res_xhigh_po_0p69.ra = 3.165241e-03
xr7.xsky130_fd_pr__res_xhigh_po_0p69.ra = 1.167470e+00
xr8.xsky130_fd_pr__res_xhigh_po_0p69.ra = 1.103839e+00
xr9.xsky130_fd_pr__res_xhigh_po_0p69.ra = 4.962855e-03
Doing analysis at TEMP = 27.000000 and TNOM = 27.000000


No. of Data Rows : 91
Error: no such vector PM
Note: Starting true gmin stepping
Trying gmin =   1.0000E-03 Note: One successful gmin step
Trying gmin =   1.0000E-04 Note: One successful gmin step
Trying gmin =   1.0000E-05 Note: One successful gmin step
Trying gmin =   1.0000E-06 Warning: Further gmin increment
Trying gmin =   5.6234E-06 Note: One successful gmin step
Trying gmin =   2.3714E-06 Note: One successful gmin step
Trying gmin =   6.4938E-07 Note: One successful gmin step
Trying gmin =   1.7783E-07 Warning: Further gmin increment
Trying gmin =   4.6976E-07 Note: One successful gmin step
Trying gmin =   2.8903E-07 Note: One successful gmin step
Trying gmin =   1.3949E-07 Warning: Further gmin increment
Trying gmin =   2.4090E-07 Note: One successful gmin step
Trying gmin =   1.8331E-07 Warning: Further gmin increment
Trying gmin =   2.2499E-07 Note: One successful gmin step
Trying gmin =   2.0309E-07 Warning: Further gmin increment
Trying gmin =   2.1931E-07 Note: One successful gmin step
Trying gmin =   2.1104E-07 Note: One successful gmin step
Trying gmin =   1.9922E-07 Warning: Further gmin increment
Trying gmin =   2.0802E-07 Warning: Further gmin increment
Trying gmin =   2.1028E-07 Note: One successful gmin step
Trying gmin =   2.0915E-07 Warning: Further gmin increment
Trying gmin =   2.1000E-07 Warning: Further gmin increment
Trying gmin =   2.1021E-07 Warning: Further gmin increment
Trying gmin =   2.1026E-07 Note: One successful gmin step
Trying gmin =   2.1024E-07 Warning: Further gmin increment
Trying gmin =   2.1026E-07 Note: One successful gmin step
Trying gmin =   2.1025E-07 Note: One successful gmin step
Trying gmin =   2.1023E-07 Warning: Further gmin increment
Trying gmin =   2.1024E-07 Note: One successful gmin step
Trying gmin =   2.1024E-07 Warning: Last gmin step failed
Warning: True gmin stepping failed
Note: Starting dynamic gmin stepping
Trying gmin =   1.0000E-03 Note: One successful gmin step
Trying gmin =   1.0000E-04 Note: One successful gmin step
Trying gmin =   1.0000E-05 Warning: Further gmin increment
Trying gmin =   5.6234E-05 Note: One successful gmin step
Trying gmin =   2.3714E-05 Note: One successful gmin step
Trying gmin =   6.4938E-06 Note: One successful gmin step
Trying gmin =   9.3057E-07 Warning: Further gmin increment
Trying gmin =   3.9954E-06 Note: One successful gmin step
Trying gmin =   1.9282E-06 Note: One successful gmin step
Trying gmin =   6.4647E-07 Warning: Further gmin increment
Trying gmin =   1.4672E-06 Note: One successful gmin step
Trying gmin =   9.7392E-07 Warning: Further gmin increment
Trying gmin =   1.3244E-06 Note: One successful gmin step
Trying gmin =   1.1357E-06 Note: One successful gmin step
Trying gmin =   9.0189E-07 Note: One successful gmin step
Trying gmin =   6.3824E-07 Note: One successful gmin step
Trying gmin =   3.7995E-07 Note: One successful gmin step
Trying gmin =   1.7452E-07 Note: One successful gmin step
Trying gmin =   5.4329E-08 Note: One successful gmin step
Trying gmin =   9.4362E-09 Note: One successful gmin step
Trying gmin =   9.4362E-10 Note: One successful gmin step
Trying gmin =   9.4362E-11 Note: One successful gmin step
Trying gmin =   9.4362E-12 Note: One successful gmin step
Trying gmin =   1.0000E-12 Note: One successful gmin step
Note: Dynamic gmin stepping completed
 Reference value :  2.80000e+00Note: Starting true gmin stepping
Trying gmin =   1.0000E-03 Note: One successful gmin step
Trying gmin =   1.0000E-04 Note: One successful gmin step
Trying gmin =   1.0000E-05 Note: One successful gmin step
Trying gmin =   1.0000E-06 Note: One successful gmin step
Trying gmin =   1.0000E-07 Note: One successful gmin step
Trying gmin =   1.0000E-08 Note: One successful gmin step
Trying gmin =   1.0000E-09 Note: One successful gmin step
Trying gmin =   1.0000E-10 Note: One successful gmin step
Trying gmin =   1.0000E-11 Warning: Further gmin increment
Trying gmin =   5.6234E-11 Note: One successful gmin step
Trying gmin =   2.3714E-11 Note: One successful gmin step
Trying gmin =   6.4938E-12 Warning: Further gmin increment
Trying gmin =   1.7154E-11 Note: One successful gmin step
Trying gmin =   1.0554E-11 Note: One successful gmin step
Trying gmin =   6.4938E-12 Note: One successful gmin step
Trying gmin =   3.1340E-12 Note: One successful gmin step
Trying gmin =   1.0507E-12 Note: One successful gmin step
Trying gmin =   1.0000E-12 Note: One successful gmin step
Note: True gmin stepping completed
 Reference value :  1.14000e+00
Error: measure  pm  (AT) : out of interval
 meas ac pm find p when vdb(ldo_out)=0 failed!

Doing analysis at TEMP = 27.000000 and TNOM = 27.000000


No. of Data Rows : 91
psrr100             =  -8.554655e+01
psrr100k            =  -2.694432e+01
Doing analysis at TEMP = 27.000000 and TNOM = 27.000000


No. of Data Rows : 86
temp_coeff = 6.463969e+01
Doing analysis at TEMP = 27.000000 and TNOM = 27.000000


No. of Data Rows : 141
vldo_sup_2          =  1.806554e+00
vldo_sup_2_8        =  1.806652e+00
line_reg = 1.225000e-04
Note: No ".plot", ".print", or ".fourier" lines; no simulations run
vin                 =  1.901641e+00
dropout = 1.376410e-01
