Note: Starting true gmin stepping
Trying gmin =   1.0000E-03 Note: One successful gmin step
Trying gmin =   1.0000E-04 Note: One successful gmin step
Trying gmin =   1.0000E-05 Note: One successful gmin step
Trying gmin =   1.0000E-06 Note: One successful gmin step
Trying gmin =   1.0000E-07 Warning: Further gmin increment
Trying gmin =   5.6234E-07 Note: One successful gmin step
Trying gmin =   2.3714E-07 Note: One successful gmin step
Trying gmin =   6.4938E-08 Warning: Further gmin increment
Trying gmin =   1.7154E-07 Note: One successful gmin step
Trying gmin =   1.0554E-07 Note: One successful gmin step
Trying gmin =   8.2788E-08 Warning: Further gmin increment
Trying gmin =   9.9328E-08 Note: One successful gmin step
Trying gmin =   9.0682E-08 Warning: Further gmin increment
Trying gmin =   9.7092E-08 Note: One successful gmin step
Trying gmin =   9.3832E-08 Warning: Further gmin increment
Trying gmin =   9.6266E-08 Note: One successful gmin step
Trying gmin =   9.5041E-08 Note: One successful gmin step
Trying gmin =   9.3832E-08 Note: One successful gmin step
Trying gmin =   9.2047E-08 Note: One successful gmin step
Trying gmin =   8.9432E-08 Note: One successful gmin step
Trying gmin =   8.5649E-08 Note: One successful gmin step
Trying gmin =   8.0272E-08 Note: One successful gmin step
Trying gmin =   7.2833E-08 Note: One successful gmin step
Trying gmin =   6.2947E-08 Note: One successful gmin step
Trying gmin =   5.0577E-08 Note: One successful gmin step
Trying gmin =   3.6426E-08 Note: One successful gmin step
Trying gmin =   2.2263E-08 Note: One successful gmin step
Trying gmin =   1.0638E-08 Note: One successful gmin step
Trying gmin =   3.5138E-09 Note: One successful gmin step
Trying gmin =   6.6705E-10 Note: One successful gmin step
Trying gmin =   6.6705E-11 Note: One successful gmin step
Trying gmin =   6.6705E-12 Note: One successful gmin step
Trying gmin =   1.0000E-12 Note: One successful gmin step
Note: True gmin stepping completed
 Reference value :  0.00000e+00
No compatibility mode selected!


Circuit: * ldo netlist 

Doing analysis at TEMP = 0.000000 and TNOM = 27.000000


No. of Data Rows : 1
bg_out = 1.100560e+00
inn = 1.184258e+00
inp = 1.184213e+00
l1#branch = 0.000000e+00
ldo_out = 1.808984e+00
m.xm1.msky130_fd_pr__nfet_g5v0d10v5#body = 1.722845e-11
m.xm1.msky130_fd_pr__nfet_g5v0d10v5#dbody = 3.802607e-11
m.xm1.msky130_fd_pr__nfet_g5v0d10v5#sbody = 1.365927e-11
m.xm2.msky130_fd_pr__pfet_g5v0d10v5#body = 2.500000e+00
m.xm2.msky130_fd_pr__pfet_g5v0d10v5#dbody = 2.500000e+00
m.xm2.msky130_fd_pr__pfet_g5v0d10v5#sbody = 2.500000e+00
m.xm3.msky130_fd_pr__pfet_g5v0d10v5#body = 2.500000e+00
m.xm3.msky130_fd_pr__pfet_g5v0d10v5#dbody = 2.500000e+00
m.xm3.msky130_fd_pr__pfet_g5v0d10v5#sbody = 2.500000e+00
m.xm4.msky130_fd_pr__pfet_g5v0d10v5#body = 2.500000e+00
m.xm4.msky130_fd_pr__pfet_g5v0d10v5#dbody = 2.500000e+00
m.xm4.msky130_fd_pr__pfet_g5v0d10v5#sbody = 2.500000e+00
m.xm5.msky130_fd_pr__pfet_g5v0d10v5#body = 2.500000e+00
m.xm5.msky130_fd_pr__pfet_g5v0d10v5#dbody = 2.500000e+00
m.xm5.msky130_fd_pr__pfet_g5v0d10v5#sbody = 2.500000e+00
m.xm6.msky130_fd_pr__nfet_g5v0d10v5#body = 1.250197e-11
m.xm6.msky130_fd_pr__nfet_g5v0d10v5#dbody = 3.125493e-11
m.xm6.msky130_fd_pr__nfet_g5v0d10v5#sbody = 6.250991e-12
m.xm7.msky130_fd_pr__pfet_g5v0d10v5#body = 2.500000e+00
m.xm7.msky130_fd_pr__pfet_g5v0d10v5#dbody = 2.500000e+00
m.xm7.msky130_fd_pr__pfet_g5v0d10v5#sbody = 2.500000e+00
m.xm8.msky130_fd_pr__pfet_g5v0d10v5#body = 2.500000e+00
m.xm8.msky130_fd_pr__pfet_g5v0d10v5#dbody = 2.500000e+00
m.xm8.msky130_fd_pr__pfet_g5v0d10v5#sbody = 2.500000e+00
m.xm9.msky130_fd_pr__nfet_g5v0d10v5#body = 1.761844e-11
m.xm9.msky130_fd_pr__nfet_g5v0d10v5#dbody = 4.074705e-11
m.xm9.msky130_fd_pr__nfet_g5v0d10v5#sbody = 1.210826e-11
m.xm10.msky130_fd_pr__nfet_g5v0d10v5#body = 1.722908e-11
m.xm10.msky130_fd_pr__nfet_g5v0d10v5#dbody = 3.977365e-11
m.xm10.msky130_fd_pr__nfet_g5v0d10v5#sbody = 1.191358e-11
m.xm11.msky130_fd_pr__pfet_g5v0d10v5#body = 2.500000e+00
m.xm11.msky130_fd_pr__pfet_g5v0d10v5#dbody = 2.500000e+00
m.xm11.msky130_fd_pr__pfet_g5v0d10v5#sbody = 2.500000e+00
m.xm12.msky130_fd_pr__pfet_g5v0d10v5#body = 2.500000e+00
m.xm12.msky130_fd_pr__pfet_g5v0d10v5#dbody = 2.500000e+00
m.xm12.msky130_fd_pr__pfet_g5v0d10v5#sbody = 2.500000e+00
m.xm13.msky130_fd_pr__nfet_g5v0d10v5#body = 1.649501e-12
m.xm13.msky130_fd_pr__nfet_g5v0d10v5#dbody = 4.123743e-12
m.xm13.msky130_fd_pr__nfet_g5v0d10v5#sbody = 8.247593e-13
m.xm14.msky130_fd_pr__pfet_g5v0d10v5#body = 2.500000e+00
m.xm14.msky130_fd_pr__pfet_g5v0d10v5#dbody = 2.500000e+00
m.xm14.msky130_fd_pr__pfet_g5v0d10v5#sbody = 2.500000e+00
m.xm15.msky130_fd_pr__nfet_g5v0d10v5#body = 1.184284e-15
m.xm15.msky130_fd_pr__nfet_g5v0d10v5#dbody = 2.960675e-15
m.xm15.msky130_fd_pr__nfet_g5v0d10v5#sbody = 5.921769e-16
m.xm16.msky130_fd_pr__nfet_g5v0d10v5#body = 4.605335e-11
m.xm16.msky130_fd_pr__nfet_g5v0d10v5#dbody = 8.552679e-11
m.xm16.msky130_fd_pr__nfet_g5v0d10v5#sbody = 5.263326e-11
m.xm17.msky130_fd_pr__pfet_g5v0d10v5#body = 2.500000e+00
m.xm17.msky130_fd_pr__pfet_g5v0d10v5#dbody = 2.500000e+00
m.xm17.msky130_fd_pr__pfet_g5v0d10v5#sbody = 2.500000e+00
m.xm18.msky130_fd_pr__nfet_g5v0d10v5#body = 1.972777e-11
m.xm18.msky130_fd_pr__nfet_g5v0d10v5#dbody = 4.923989e-11
m.xm18.msky130_fd_pr__nfet_g5v0d10v5#sbody = 9.863895e-12
m.xm19.msky130_fd_pr__nfet_g5v0d10v5#body = 1.731260e-11
m.xm19.msky130_fd_pr__nfet_g5v0d10v5#dbody = 3.823645e-11
m.xm19.msky130_fd_pr__nfet_g5v0d10v5#sbody = 1.370134e-11
m.xm20.msky130_fd_pr__nfet_g5v0d10v5#body = 1.307612e-11
m.xm20.msky130_fd_pr__nfet_g5v0d10v5#dbody = 3.269028e-11
m.xm20.msky130_fd_pr__nfet_g5v0d10v5#sbody = 6.538071e-12
m.xm22.msky130_fd_pr__nfet_g5v0d10v5#body = 2.522559e-12
m.xm22.msky130_fd_pr__nfet_g5v0d10v5#dbody = 6.306392e-12
m.xm22.msky130_fd_pr__nfet_g5v0d10v5#sbody = 1.261284e-12
m.xm24.msky130_fd_pr__pfet_g5v0d10v5#body = 2.500000e+00
m.xm24.msky130_fd_pr__pfet_g5v0d10v5#dbody = 2.500000e+00
m.xm24.msky130_fd_pr__pfet_g5v0d10v5#sbody = 2.500000e+00
m.xm26.msky130_fd_pr__pfet_g5v0d10v5#body = 2.500000e+00
m.xm26.msky130Note: Starting true gmin stepping
Trying gmin =   1.0000E-03 Note: One successful gmin step
Trying gmin =   1.0000E-04 Note: One successful gmin step
Trying gmin =   1.0000E-05 Note: One successful gmin step
Trying gmin =   1.0000E-06 Note: One successful gmin step
Trying gmin =   1.0000E-07 Warning: Further gmin increment
Trying gmin =   5.6234E-07 Note: One successful gmin step
Trying gmin =   2.3714E-07 Note: One successful gmin step
Trying gmin =   6.4938E-08 Warning: Further gmin increment
Trying gmin =   1.7154E-07 Note: One successful gmin step
Trying gmin =   1.0554E-07 Note: One successful gmin step
Trying gmin =   8.2788E-08 Warning: Further gmin increment
Trying gmin =   9.9328E-08 Note: One successful gmin step
Trying gmin =   9.0682E-08 Warning: Further gmin increment
Trying gmin =   9.7092E-08 Note: One successful gmin step
Trying gmin =   9.3832E-08 Warning: Further gmin increment
Trying gmin =   9.6266E-08 Note: One successful gmin step
Trying gmin =   9.5041E-08 Note: One successful gmin step
Trying gmin =   9.3832E-08 Note: One successful gmin step
Trying gmin =   9.2047E-08 Note: One successful gmin step
Trying gmin =   8.9432E-08 Note: One successful gmin step
Trying gmin =   8.5649E-08 Note: One successful gmin step
Trying gmin =   8.0272E-08 Note: One successful gmin step
Trying gmin =   7.2833E-08 Note: One successful gmin step
Trying gmin =   6.2947E-08 Note: One successful gmin step
Trying gmin =   5.0577E-08 Note: One successful gmin step
Trying gmin =   3.6426E-08 Note: One successful gmin step
Trying gmin =   2.2263E-08 Note: One successful gmin step
Trying gmin =   1.0638E-08 Note: One successful gmin step
Trying gmin =   3.5138E-09 Note: One successful gmin step
Trying gmin =   6.6705E-10 Note: One successful gmin step
Trying gmin =   6.6705E-11 Note: One successful gmin step
Trying gmin =   6.6705E-12 Note: One successful gmin step
Trying gmin =   1.0000E-12 Note: One successful gmin step
Note: True gmin stepping completed
 Reference value :  1.00000e+00_fd_pr__pfet_g5v0d10v5#dbody = 2.500000e+00
m.xm26.msky130_fd_pr__pfet_g5v0d10v5#sbody = 2.500000e+00
mir = 1.176469e+00
net1 = 7.746755e-01
net2 = 9.468651e-05
net3 = 8.280608e-01
net4 = 2.017970e-01
net5 = 1.183201e+00
net6 = 1.000150e+00
net7 = 8.280139e-01
net8 = 1.246361e+00
net9 = 1.277510e+00
net10 = 1.319583e-01
net11 = 1.575039e+00
net12 = 1.575039e+00
net13 = 0.000000e+00
out = 1.575039e+00
pos = 1.100814e+00
q.xq2.qsky130_fd_pr__pnp_05v5_w0p68l0p68#collcx = 1.708137e-03
q.xq3.qsky130_fd_pr__pnp_05v5_w0p68l0p68#collcx = 2.162591e-04
q.xq4.qsky130_fd_pr__pnp_05v5_w0p68l0p68#collcx = 2.162591e-04
q.xq8.qsky130_fd_pr__pnp_05v5_w0p68l0p68#collcx = 2.162591e-04
q.xq10.qsky130_fd_pr__pnp_05v5_w0p68l0p68#collcx = 2.162591e-04
q.xq12.qsky130_fd_pr__pnp_05v5_w0p68l0p68#collcx = 2.162591e-04
q.xq14.qsky130_fd_pr__pnp_05v5_w0p68l0p68#collcx = 2.162591e-04
q.xq16.qsky130_fd_pr__pnp_05v5_w0p68l0p68#collcx = 2.162591e-04
q.xq18.qsky130_fd_pr__pnp_05v5_w0p68l0p68#collcx = 2.162591e-04
vb = 1.046088e+00
vdd = 2.500000e+00
vs#branch = -1.71471e-04
vt#branch = 0.000000e+00
xc1.a = 0.000000e+00
xc1.b1 = 0.000000e+00
xc3.a = 1.575039e+00
xc3.b1 = 1.575039e+00
xr1.xsky130_fd_pr__res_xhigh_po_0p69.ra = 8.332733e-01
xr2.xsky130_fd_pr__res_xhigh_po_0p69.ra = 8.333202e-01
xr3.xsky130_fd_pr__res_xhigh_po_0p69.ra = 3.842990e-03
xr4.xsky130_fd_pr__res_xhigh_po_0p69.ra = 7.762127e-01
xr5.xsky130_fd_pr__res_xhigh_po_0p69.ra = 3.842758e-03
xr6.xsky130_fd_pr__res_xhigh_po_0p69.ra = 5.593097e-03
xr7.xsky130_fd_pr__res_xhigh_po_0p69.ra = 1.575039e+00
xr8.xsky130_fd_pr__res_xhigh_po_0p69.ra = 1.109313e+00
xr9.xsky130_fd_pr__res_xhigh_po_0p69.ra = 8.774783e-03
Doing analysis at TEMP = 0.000000 and TNOM = 27.000000


No. of Data Rows : 91
Note: Starting true gmin stepping
Trying gmin =   1.0000E-03 Note: One successful gmin step
Trying gmin =   1.0000E-04 Note: One successful gmin step
Trying gmin =   1.0000E-05 Note: One successful gmin step
Trying gmin =   1.0000E-06 Note: One successful gmin step
Trying gmin =   1.0000E-07 Warning: Further gmin increment
Trying gmin =   5.6234E-07 Note: One successful gmin step
Trying gmin =   2.3714E-07 Note: One successful gmin step
Trying gmin =   6.4938E-08 Warning: Further gmin increment
Trying gmin =   1.7154E-07 Note: One successful gmin step
Trying gmin =   1.0554E-07 Note: One successful gmin step
Trying gmin =   8.2788E-08 Warning: Further gmin increment
Trying gmin =   9.9328E-08 Note: One successful gmin step
Trying gmin =   9.0682E-08 Warning: Further gmin increment
Trying gmin =   9.7092E-08 Note: One successful gmin step
Trying gmin =   9.3832E-08 Warning: Further gmin increment
Trying gmin =   9.6266E-08 Note: One successful gmin step
Trying gmin =   9.5041E-08 Note: One successful gmin step
Trying gmin =   9.3832E-08 Note: One successful gmin step
Trying gmin =   9.2047E-08 Note: One successful gmin step
Trying gmin =   8.9432E-08 Note: One successful gmin step
Trying gmin =   8.5649E-08 Note: One successful gmin step
Trying gmin =   8.0272E-08 Note: One successful gmin step
Trying gmin =   7.2833E-08 Note: One successful gmin step
Trying gmin =   6.2947E-08 Note: One successful gmin step
Trying gmin =   5.0577E-08 Note: One successful gmin step
Trying gmin =   3.6426E-08 Note: One successful gmin step
Trying gmin =   2.2263E-08 Note: One successful gmin step
Trying gmin =   1.0638E-08 Note: One successful gmin step
Trying gmin =   3.5138E-09 Note: One successful gmin step
Trying gmin =   6.6705E-10 Note: One successful gmin step
Trying gmin =   6.6705E-11 Note: One successful gmin step
Trying gmin =   6.6705E-12 Note: One successful gmin step
Trying gmin =   1.0000E-12 Note: One successful gmin step
Note: True gmin stepping completed
 Reference value :  1.00000e+00Note: Starting true gmin stepping
Trying gmin =   1.0000E-03 Note: One successful gmin step
Trying gmin =   1.0000E-04 Note: One successful gmin step
Trying gmin =   1.0000E-05 Note: One successful gmin step
Trying gmin =   1.0000E-06 Note: One successful gmin step
Trying gmin =   1.0000E-07 Warning: Further gmin increment
Trying gmin =   5.6234E-07 Note: One successful gmin step
Trying gmin =   2.3714E-07 Note: One successful gmin step
Trying gmin =   1.0000E-07 Note: One successful gmin step
Trying gmin =   2.7384E-08 Warning: Further gmin increment
Trying gmin =   7.2339E-08 Warning: Further gmin increment
Trying gmin =   9.2224E-08 Note: One successful gmin step
Trying gmin =   8.1679E-08 Note: One successful gmin step
Trying gmin =   6.8078E-08 Warning: Further gmin increment
Trying gmin =   7.8043E-08 Note: One successful gmin step
Trying gmin =   7.2890E-08 Warning: Further gmin increment
Trying gmin =   7.6722E-08 Note: One successful gmin step
Trying gmin =   7.4782E-08 Note: One successful gmin step
Trying gmin =   7.1963E-08 Warning: Further gmin increment
Trying gmin =   7.4067E-08 Note: One successful gmin step
Trying gmin =   7.3007E-08 Warning: Further gmin increment
Trying gmin =   7.3800E-08 Note: One successful gmin step
Trying gmin =   7.3535E-08 Note: One successful gmin step
Trying gmin =   7.3139E-08 Note: One successful gmin step
Trying gmin =   7.2549E-08 Note: One successful gmin step
Trying gmin =   7.1672E-08 Note: One successful gmin step
Trying gmin =   7.0377E-08 Note: One successful gmin step
Trying gmin =   6.8478E-08 Note: One successful gmin step
Trying gmin =   6.5725E-08 Note: One successful gmin step
Trying gmin =   6.1803E-08 Note: One successful gmin step
Trying gmin =   5.6353E-08 Note: One successful gmin step
Trying gmin =   4.9066E-08 Note: One successful gmin step
Trying gmin =   3.9864E-08 Note: One successful gmin step
Trying gmin =   2.9193E-08 Note: One successful gmin step
Trying gmin =   1.8294E-08 Note: One successful gmin step
Trying gmin =   9.0757E-09 Note: One successful gmin step
Trying gmin =   3.1712E-09 Note: One successful gmin step
Trying gmin =   6.5500E-10 Note: One successful gmin step
Trying gmin =   6.5500E-11 Note: One successful gmin step
Trying gmin =   6.5500E-12 Note: One successful gmin step
Trying gmin =   1.0000E-12 Note: One successful gmin step
Note: True gmin stepping completed
 Reference value :  2.80000e+00Note: Starting true gmin stepping
Trying gmin =   1.0000E-03 Note: One successful gmin step
Trying gmin =   1.0000E-04 Note: One successful gmin step
Trying gmin =   1.0000E-05 Note: One successful gmin step
Trying gmin =   1.0000E-06 Note: One successful gmin step
Trying gmin =   1.0000E-07 Note: One successful gmin step
Trying gmin =   1.0000E-08 Note: One successful gmin step
Trying gmin =   3.1623E-09 Note: One successful gmin step
Trying gmin =   5.6234E-10 Warning: Further gmin increment
Trying gmin =   2.0535E-09 Note: One successful gmin step
Trying gmin =   1.0746E-09 Note: One successful gmin step
Trying gmin =   4.0679E-10 Note: One successful gmin step
Trying gmin =   9.4746E-11 Warning: Further gmin increment
Trying gmin =   2.8260E-10 Note: One successful gmin step
Trying gmin =   1.6363E-10 Warning: Further gmin increment
Trying gmin =   2.4652E-10 Note: One successful gmin step
Trying gmin =   2.0084E-10 Note: One successful gmin step
Trying gmin =   1.8128E-10 Note: One successful gmin step
Trying gmin =   1.5546E-10 Note: One successful gmin step
Trying gmin =   1.2345E-10 Note: One successful gmin step
Trying gmin =   8.7365E-11 Note: One successful gmin step
Trying gmin =   5.2010E-11 Note: One successful gmin step
Trying gmin =   2.3889E-11 Note: One successful gmin step
Trying gmin =   7.4367E-12 Note: One successful gmin step
Trying gmin =   1.2917E-12 Note: One successful gmin step
Trying gmin =   1.0000E-12 Note: One successful gmin step
Note: True gmin stepping completed
 Reference value :  1.44000e+00Note: Starting true gmin stepping
Trying gmin =   1.0000E-03 Note: One successful gmin step
Trying gmin =   1.0000E-04 Note: One successful gmin step
Trying gmin =   1.0000E-05 Note: One successful gmin step
Trying gmin =   1.0000E-06 Note: One successful gmin step
Trying gmin =   1.0000E-07 Note: One successful gmin step
Trying gmin =   1.0000E-08 Error: -9.85205e+182, 2 out of range for ^
Warning: Further gmin increment
Trying gmin =   5.6234E-08 Note: One successful gmin step
Trying gmin =   2.3714E-08 Note: One successful gmin step
Trying gmin =   6.4938E-09 Note: One successful gmin step
Trying gmin =   9.3057E-10 Note: One successful gmin step
Trying gmin =   9.3057E-11 Warning: Further gmin increment
Trying gmin =   5.2330E-10 Note: One successful gmin step
Trying gmin =   2.2067E-10 Note: One successful gmin step
Trying gmin =   6.0430E-11 Warning: Further gmin increment
Trying gmin =   1.5963E-10 Warning: Further gmin increment
Trying gmin =   2.0351E-10 Note: One successful gmin step
Trying gmin =   1.8024E-10 Note: One successful gmin step
Trying gmin =   1.5023E-10 Note: One successful gmin step
Trying gmin =   1.1432E-10 Note: One successful gmin step
Trying gmin =   7.5880E-11 Note: One successful gmin step
Trying gmin =   4.1035E-11 Note: One successful gmin step
Trying gmin =   1.6320E-11 Note: One successful gmin step
Trying gmin =   4.0929E-12 Note: One successful gmin step
Trying gmin =   1.0000E-12 Note: One successful gmin step
Note: True gmin stepping completed
Note: Starting true gmin stepping
Trying gmin =   1.0000E-03 Note: One successful gmin step
Trying gmin =   1.0000E-04 Note: One successful gmin step
Trying gmin =   1.0000E-05 Note: One successful gmin step
Trying gmin =   1.0000E-06 Note: One successful gmin step
Trying gmin =   1.0000E-07 Note: One successful gmin step
Trying gmin =   1.0000E-08 Note: One successful gmin step
Trying gmin =   1.0000E-09 Note: One successful gmin step
Trying gmin =   1.0000E-10 Warning: Further gmin increment
Trying gmin =   5.6234E-10 Note: One successful gmin step
Trying gmin =   2.3714E-10 Note: One successful gmin step
Trying gmin =   6.4938E-11 Warning: Further gmin increment
Trying gmin =   1.7154E-10 Note: One successful gmin step
Trying gmin =   1.0554E-10 Note: One successful gmin step
Trying gmin =   6.4938E-11 Note: One successful gmin step
Trying gmin =   3.1340E-11 Note: One successful gmin step
Trying gmin =   1.0507E-11 Note: One successful gmin step
Trying gmin =   2.0397E-12 Note: One successful gmin step
Trying gmin =   1.0000E-12 Note: One successful gmin step
Note: True gmin stepping completed
 Reference value :  1.40000e+00pm                  =  6.186534e+01
Doing analysis at TEMP = 0.000000 and TNOM = 27.000000


No. of Data Rows : 91
psrr100             =  -6.045903e+01
psrr100k            =  -2.718852e+01
Doing analysis at TEMP = 0.000000 and TNOM = 27.000000


No. of Data Rows : 86
temp_coeff = 4.951325e+01
Doing analysis at TEMP = 0.000000 and TNOM = 27.000000


No. of Data Rows : 141
vldo_sup_2          =  1.809590e+00
vldo_sup_2_8        =  1.808747e+00
line_reg = 1.053750e-03
Note: No ".plot", ".print", or ".fourier" lines; no simulations run
vin                 =  1.764144e+00
dropout = 1.440000e-04
