 Reference value :  0.00000e+00
No compatibility mode selected!


Circuit: * ldo netlist 

Doing analysis at TEMP = 27.000000 and TNOM = 27.000000


No. of Data Rows : 1
bg_out = 1.095745e+00
inn = 1.139515e+00
inp = 1.139461e+00
l1#branch = -1.38778e-17
ldo_out = 1.800670e+00
m.xm1.msky130_fd_pr__nfet_g5v0d10v5#body = 1.947210e-11
m.xm1.msky130_fd_pr__nfet_g5v0d10v5#dbody = 4.414472e-11
m.xm1.msky130_fd_pr__nfet_g5v0d10v5#sbody = 1.427152e-11
m.xm2.msky130_fd_pr__pfet_g5v0d10v5#body = 2.500000e+00
m.xm2.msky130_fd_pr__pfet_g5v0d10v5#dbody = 2.500000e+00
m.xm2.msky130_fd_pr__pfet_g5v0d10v5#sbody = 2.500000e+00
m.xm3.msky130_fd_pr__pfet_g5v0d10v5#body = 2.500000e+00
m.xm3.msky130_fd_pr__pfet_g5v0d10v5#dbody = 2.500000e+00
m.xm3.msky130_fd_pr__pfet_g5v0d10v5#sbody = 2.500000e+00
m.xm4.msky130_fd_pr__pfet_g5v0d10v5#body = 2.500000e+00
m.xm4.msky130_fd_pr__pfet_g5v0d10v5#dbody = 2.500000e+00
m.xm4.msky130_fd_pr__pfet_g5v0d10v5#sbody = 2.500000e+00
m.xm5.msky130_fd_pr__pfet_g5v0d10v5#body = 2.500000e+00
m.xm5.msky130_fd_pr__pfet_g5v0d10v5#dbody = 2.500000e+00
m.xm5.msky130_fd_pr__pfet_g5v0d10v5#sbody = 2.500000e+00
m.xm6.msky130_fd_pr__nfet_g5v0d10v5#body = 1.239242e-11
m.xm6.msky130_fd_pr__nfet_g5v0d10v5#dbody = 3.098103e-11
m.xm6.msky130_fd_pr__nfet_g5v0d10v5#sbody = 6.196212e-12
m.xm7.msky130_fd_pr__pfet_g5v0d10v5#body = 2.500000e+00
m.xm7.msky130_fd_pr__pfet_g5v0d10v5#dbody = 2.500000e+00
m.xm7.msky130_fd_pr__pfet_g5v0d10v5#sbody = 2.500000e+00
m.xm8.msky130_fd_pr__pfet_g5v0d10v5#body = 2.500000e+00
m.xm8.msky130_fd_pr__pfet_g5v0d10v5#dbody = 2.500000e+00
m.xm8.msky130_fd_pr__pfet_g5v0d10v5#sbody = 2.500000e+00
m.xm9.msky130_fd_pr__nfet_g5v0d10v5#body = 2.018055e-11
m.xm9.msky130_fd_pr__nfet_g5v0d10v5#dbody = 4.699185e-11
m.xm9.msky130_fd_pr__nfet_g5v0d10v5#sbody = 1.354863e-11
m.xm10.msky130_fd_pr__nfet_g5v0d10v5#body = 1.987150e-11
m.xm10.msky130_fd_pr__nfet_g5v0d10v5#dbody = 4.621977e-11
m.xm10.msky130_fd_pr__nfet_g5v0d10v5#sbody = 1.339411e-11
m.xm11.msky130_fd_pr__pfet_g5v0d10v5#body = 2.500000e+00
m.xm11.msky130_fd_pr__pfet_g5v0d10v5#dbody = 2.500000e+00
m.xm11.msky130_fd_pr__pfet_g5v0d10v5#sbody = 2.500000e+00
m.xm12.msky130_fd_pr__pfet_g5v0d10v5#body = 2.500000e+00
m.xm12.msky130_fd_pr__pfet_g5v0d10v5#dbody = 2.500000e+00
m.xm12.msky130_fd_pr__pfet_g5v0d10v5#sbody = 2.500000e+00
m.xm13.msky130_fd_pr__nfet_g5v0d10v5#body = 1.727831e-12
m.xm13.msky130_fd_pr__nfet_g5v0d10v5#dbody = 4.319567e-12
m.xm13.msky130_fd_pr__nfet_g5v0d10v5#sbody = 8.639242e-13
m.xm14.msky130_fd_pr__pfet_g5v0d10v5#body = 2.500000e+00
m.xm14.msky130_fd_pr__pfet_g5v0d10v5#dbody = 2.500000e+00
m.xm14.msky130_fd_pr__pfet_g5v0d10v5#sbody = 2.500000e+00
m.xm15.msky130_fd_pr__nfet_g5v0d10v5#body = 4.169428e-15
m.xm15.msky130_fd_pr__nfet_g5v0d10v5#dbody = 1.042347e-14
m.xm15.msky130_fd_pr__nfet_g5v0d10v5#sbody = 2.084816e-15
m.xm16.msky130_fd_pr__nfet_g5v0d10v5#body = 4.550269e-11
m.xm16.msky130_fd_pr__nfet_g5v0d10v5#dbody = 8.526010e-11
m.xm16.msky130_fd_pr__nfet_g5v0d10v5#sbody = 5.124798e-11
m.xm17.msky130_fd_pr__pfet_g5v0d10v5#body = 2.500000e+00
m.xm17.msky130_fd_pr__pfet_g5v0d10v5#dbody = 2.500000e+00
m.xm17.msky130_fd_pr__pfet_g5v0d10v5#sbody = 2.500000e+00
m.xm18.msky130_fd_pr__nfet_g5v0d10v5#body = 1.461573e-11
m.xm18.msky130_fd_pr__nfet_g5v0d10v5#dbody = 3.653930e-11
m.xm18.msky130_fd_pr__nfet_g5v0d10v5#sbody = 7.307875e-12
m.xm19.msky130_fd_pr__nfet_g5v0d10v5#body = 1.957048e-11
m.xm19.msky130_fd_pr__nfet_g5v0d10v5#dbody = 4.439066e-11
m.xm19.msky130_fd_pr__nfet_g5v0d10v5#sbody = 1.432071e-11
m.xm20.msky130_fd_pr__nfet_g5v0d10v5#body = 1.302100e-11
m.xm20.msky130_fd_pr__nfet_g5v0d10v5#dbody = 3.255249e-11
m.xm20.msky130_fd_pr__nfet_g5v0d10v5#sbody = 6.510513e-12
m.xm22.msky130_fd_pr__nfet_g5v0d10v5#body = 2.270444e-12
m.xm22.msky130_fd_pr__nfet_g5v0d10v5#dbody = 5.676104e-12
m.xm22.msky130_fd_pr__nfet_g5v0d10v5#sbody = 1.135226e-12
m.xm24.msky130_fd_pr__pfet_g5v0d10v5#body = 2.500000e+00
m.xm24.msky130_fd_pr__pfet_g5v0d10v5#dbody = 2.500000e+00
m.xm24.msky130_fd_pr__pfet_g5v0d10v5#sbody = 2.500000e+00
m.xm26.msky130_fd_pr__pfet_g5v0d10v5#body = 2.500000e+00
m.xm26.msky130_fd_pr__pfet_g5v0d10v5#dbody = 2.500000e+00
m.xm26.msky130_fd_pr__pfet_g5v0d10v5#sbody = 2.500000e+00
mir = 1.375997e+00
net1 = 7.251156e-01
net2 = 3.208463e-04
net3 = 7.846605e-01
net4 = 1.810691e-01
net5 = 1.383867e+00
net6 = 9.908260e-01
net7 = 7.846058e-01
net8 = 1.451120e+00
net9 = 1.475821e+00
net10 = 1.380944e-01
net11 = 1.169125e+00
net12 = 1.169125e+00
net13 = 0.000000e+00
out = 1.169125e+00
pos = 1.095961e+00
q.xq2.qsky130_fd_pr__pnp_05v5_w0p68l0p68#collcx = 2.092631e-03
q.xq3.qsky130_fd_pr__pnp_05v5_w0p68l0p68#collcx = 2.635345e-04
q.xq4.qsky130_fd_pr__pnp_05v5_w0p68l0p68#collcx = 2.635345e-04
q.xq8.qsky130_fd_pr__pnp_05v5_w0p68l0p68#collcx = 2.635345e-04
q.xq10.qsky130_fd_pr__pnp_05v5_w0p68l0p68#collcx = 2.635345e-04
q.xq12.qsky130_fd_pr__pnp_05v5_w0p68l0p68#collcx = 2.635345e-04
q.xq14.qsky130_fd_pr__pnp_05v5_w0p68l0p68#collcx = 2.635345e-04
q.xq16.qsky130_fd_pr__pnp_05v5_w0p68l0p68#collcx = 2.635345e-04
q.xq18.qsky130_fd_pr__pnp_05v5_w0p68l0p68#collcx = 2.635345e-04
vb = 1.041547e+00
vdd = 2.500000e+00
vs#branch = -1.00158e-01
vt#branch = 0.000000e+00
xc1.a = 0.000000e+00
xc1.b1 = 0.000000e+00
xc3.a = 1.169125e+00
xc3.b1 = 1.169125e+00
xr1.xsky130_fd_pr__res_xhigh_po_0p69.ra = 7.923580e-01
xr2.xsky130_fd_pr__res_xhigh_po_0p69.ra = 7.924127e-01
xr3.xsky130_fd_pr__res_xhigh_po_0p69.ra = 5.363045e-03
xr4.xsky130_fd_pr__res_xhigh_po_0p69.ra = 7.276516e-01
xr5.xsky130_fd_pr__res_xhigh_po_0p69.ra = 5.362647e-03
xr6.xsky130_fd_pr__res_xhigh_po_0p69.ra = 8.227608e-03
xr7.xsky130_fd_pr__res_xhigh_po_0p69.ra = 1.169125e+00
xr8.xsky130_fd_pr__res_xhigh_po_0p69.ra = 1.108468e+00
xr9.xsky130_fd_pr__res_xhigh_po_0p69.ra = 1.291135e-02
Doing analysis at TEMP = 27.000000 and TNOM = 27.000000


No. of Data Rows : 91
Error: no such vector PM
Note: Starting true gmin stepping
Trying gmin =   1.0000E-03 Note: One successful gmin step
Trying gmin =   1.0000E-04 Note: One successful gmin step
Trying gmin =   1.0000E-05 Note: One successful gmin step
Trying gmin =   1.0000E-06 Warning: Further gmin increment
Trying gmin =   5.6234E-06 Note: One successful gmin step
Trying gmin =   2.3714E-06 Note: One successful gmin step
Trying gmin =   6.4938E-07 Warning: Further gmin increment
Trying gmin =   1.7154E-06 Note: One successful gmin step
Trying gmin =   1.0554E-06 Note: One successful gmin step
Trying gmin =   5.0937E-07 Note: One successful gmin step
Trying gmin =   2.4582E-07 Warning: Further gmin increment
Trying gmin =   4.2455E-07 Note: One successful gmin step
Trying gmin =   3.2306E-07 Note: One successful gmin step
Trying gmin =   2.1444E-07 Note: One successful gmin step
Trying gmin =   1.1597E-07 Note: One successful gmin step
Trying gmin =   4.6119E-08 Note: One successful gmin step
Trying gmin =   1.1566E-08 Note: One successful gmin step
Trying gmin =   1.4527E-09 Note: One successful gmin step
Trying gmin =   1.4527E-10 Note: One successful gmin step
Trying gmin =   1.4527E-11 Note: One successful gmin step
Trying gmin =   1.4527E-12 Note: One successful gmin step
Trying gmin =   1.0000E-12 Note: One successful gmin step
Note: True gmin stepping completed
 Reference value :  2.80000e+00Note: Starting true gmin stepping
Trying gmin =   1.0000E-03 Note: One successful gmin step
Trying gmin =   1.0000E-04 Note: One successful gmin step
Trying gmin =   1.0000E-05 Note: One successful gmin step
Trying gmin =   1.0000E-06 Note: One successful gmin step
Trying gmin =   1.0000E-07 Note: One successful gmin step
Trying gmin =   1.0000E-08 Note: One successful gmin step
Trying gmin =   3.1623E-09 Note: One successful gmin step
Trying gmin =   5.6234E-10 Note: One successful gmin step
Trying gmin =   5.6234E-11 Note: One successful gmin step
Trying gmin =   1.7783E-11 Note: One successful gmin step
Trying gmin =   3.1623E-12 Warning: Further gmin increment
Trying gmin =   1.1548E-11 Warning: Further gmin increment
Trying gmin =   1.5963E-11 Note: One successful gmin step
Trying gmin =   1.3577E-11 Note: One successful gmin step
Trying gmin =   1.0650E-11 Note: One successful gmin step
Trying gmin =   8.3536E-12 Note: One successful gmin step
Trying gmin =   5.8033E-12 Note: One successful gmin step
Trying gmin =   3.3602E-12 Note: One successful gmin step
Trying gmin =   1.4805E-12 Note: One successful gmin step
Trying gmin =   1.0000E-12 Note: One successful gmin step
Note: True gmin stepping completed
 Reference value :  1.14000e+00Note: Starting true gmin stepping
Trying gmin =   1.0000E-03 Note: One successful gmin step
Trying gmin =   1.0000E-04 Note: One successful gmin step
Trying gmin =   1.0000E-05 Note: One successful gmin step
Trying gmin =   1.0000E-06 Note: One successful gmin step
Trying gmin =   1.0000E-07 Note: One successful gmin step
Trying gmin =   1.0000E-08 Note: One successful gmin step
Trying gmin =   1.0000E-09 Note: One successful gmin step
Trying gmin =   1.0000E-10 Note: One successful gmin step
Trying gmin =   1.0000E-11 Warning: Further gmin increment
Trying gmin =   5.6234E-11 Note: One successful gmin step
Trying gmin =   3.1623E-11 Note: One successful gmin step
Trying gmin =   1.3335E-11 Note: One successful gmin step
Trying gmin =   3.6517E-12 Warning: Further gmin increment
Trying gmin =   9.6466E-12 Note: One successful gmin step
Trying gmin =   6.9783E-12 Note: One successful gmin step
Trying gmin =   4.2935E-12 Note: One successful gmin step
Trying gmin =   2.0721E-12 Note: One successful gmin step
Trying gmin =   1.0000E-12 Note: One successful gmin step
Note: True gmin stepping completed
 Reference value :  8.00000e-01
Error: measure  pm  (AT) : out of interval
 meas ac pm find p when vdb(ldo_out)=0 failed!

Doing analysis at TEMP = 27.000000 and TNOM = 27.000000


No. of Data Rows : 91
psrr100             =  -8.446328e+01
psrr100k            =  -2.648792e+01
Doing analysis at TEMP = 27.000000 and TNOM = 27.000000


No. of Data Rows : 86
temp_coeff = 3.086455e+01
Doing analysis at TEMP = 27.000000 and TNOM = 27.000000


No. of Data Rows : 141
vldo_sup_2          =  1.800580e+00
vldo_sup_2_8        =  1.800648e+00
line_reg = 8.500000e-05
Note: No ".plot", ".print", or ".fourier" lines; no simulations run
vin                 =  1.901639e+00
dropout = 1.376390e-01
