 Reference value :  0.00000e+00
No compatibility mode selected!


Circuit: * ldo netlist 

Doing analysis at TEMP = 27.000000 and TNOM = 27.000000


No. of Data Rows : 1
bg_out = 1.092795e+00
inn = 1.134606e+00
inp = 1.134581e+00
l1#branch = 0.000000e+00
ldo_out = 1.796100e+00
m.xm1.msky130_fd_pr__nfet_g5v0d10v5#body = 1.754065e-11
m.xm1.msky130_fd_pr__nfet_g5v0d10v5#dbody = 3.740171e-11
m.xm1.msky130_fd_pr__nfet_g5v0d10v5#sbody = 1.522023e-11
m.xm2.msky130_fd_pr__pfet_g5v0d10v5#body = 2.300000e+00
m.xm2.msky130_fd_pr__pfet_g5v0d10v5#dbody = 2.300000e+00
m.xm2.msky130_fd_pr__pfet_g5v0d10v5#sbody = 2.300000e+00
m.xm3.msky130_fd_pr__pfet_g5v0d10v5#body = 2.300000e+00
m.xm3.msky130_fd_pr__pfet_g5v0d10v5#dbody = 2.300000e+00
m.xm3.msky130_fd_pr__pfet_g5v0d10v5#sbody = 2.300000e+00
m.xm4.msky130_fd_pr__pfet_g5v0d10v5#body = 2.300000e+00
m.xm4.msky130_fd_pr__pfet_g5v0d10v5#dbody = 2.300000e+00
m.xm4.msky130_fd_pr__pfet_g5v0d10v5#sbody = 2.300000e+00
m.xm5.msky130_fd_pr__pfet_g5v0d10v5#body = 2.300000e+00
m.xm5.msky130_fd_pr__pfet_g5v0d10v5#dbody = 2.300000e+00
m.xm5.msky130_fd_pr__pfet_g5v0d10v5#sbody = 2.300000e+00
m.xm6.msky130_fd_pr__nfet_g5v0d10v5#body = 1.132302e-11
m.xm6.msky130_fd_pr__nfet_g5v0d10v5#dbody = 2.830755e-11
m.xm6.msky130_fd_pr__nfet_g5v0d10v5#sbody = 5.661517e-12
m.xm7.msky130_fd_pr__pfet_g5v0d10v5#body = 2.300000e+00
m.xm7.msky130_fd_pr__pfet_g5v0d10v5#dbody = 2.300000e+00
m.xm7.msky130_fd_pr__pfet_g5v0d10v5#sbody = 2.300000e+00
m.xm8.msky130_fd_pr__pfet_g5v0d10v5#body = 2.300000e+00
m.xm8.msky130_fd_pr__pfet_g5v0d10v5#dbody = 2.300000e+00
m.xm8.msky130_fd_pr__pfet_g5v0d10v5#sbody = 2.300000e+00
m.xm9.msky130_fd_pr__nfet_g5v0d10v5#body = 1.813964e-11
m.xm9.msky130_fd_pr__nfet_g5v0d10v5#dbody = 3.995627e-11
m.xm9.msky130_fd_pr__nfet_g5v0d10v5#sbody = 1.446265e-11
m.xm10.msky130_fd_pr__nfet_g5v0d10v5#body = 1.799917e-11
m.xm10.msky130_fd_pr__nfet_g5v0d10v5#dbody = 3.960511e-11
m.xm10.msky130_fd_pr__nfet_g5v0d10v5#sbody = 1.439241e-11
m.xm11.msky130_fd_pr__pfet_g5v0d10v5#body = 2.300000e+00
m.xm11.msky130_fd_pr__pfet_g5v0d10v5#dbody = 2.300000e+00
m.xm11.msky130_fd_pr__pfet_g5v0d10v5#sbody = 2.300000e+00
m.xm12.msky130_fd_pr__pfet_g5v0d10v5#body = 2.300000e+00
m.xm12.msky130_fd_pr__pfet_g5v0d10v5#dbody = 2.300000e+00
m.xm12.msky130_fd_pr__pfet_g5v0d10v5#sbody = 2.300000e+00
m.xm13.msky130_fd_pr__nfet_g5v0d10v5#body = 2.695056e-12
m.xm13.msky130_fd_pr__nfet_g5v0d10v5#dbody = 6.737628e-12
m.xm13.msky130_fd_pr__nfet_g5v0d10v5#sbody = 1.347538e-12
m.xm14.msky130_fd_pr__pfet_g5v0d10v5#body = 2.300000e+00
m.xm14.msky130_fd_pr__pfet_g5v0d10v5#dbody = 2.300000e+00
m.xm14.msky130_fd_pr__pfet_g5v0d10v5#sbody = 2.300000e+00
m.xm15.msky130_fd_pr__nfet_g5v0d10v5#body = 5.735988e-16
m.xm15.msky130_fd_pr__nfet_g5v0d10v5#dbody = 1.433957e-15
m.xm15.msky130_fd_pr__nfet_g5v0d10v5#sbody = 2.868391e-16
m.xm16.msky130_fd_pr__nfet_g5v0d10v5#body = 4.294123e-11
m.xm16.msky130_fd_pr__nfet_g5v0d10v5#dbody = 7.897926e-11
m.xm16.msky130_fd_pr__nfet_g5v0d10v5#sbody = 4.984442e-11
m.xm17.msky130_fd_pr__pfet_g5v0d10v5#body = 2.300000e+00
m.xm17.msky130_fd_pr__pfet_g5v0d10v5#dbody = 2.300000e+00
m.xm17.msky130_fd_pr__pfet_g5v0d10v5#sbody = 2.300000e+00
m.xm18.msky130_fd_pr__nfet_g5v0d10v5#body = 1.136466e-11
m.xm18.msky130_fd_pr__nfet_g5v0d10v5#dbody = 2.841163e-11
m.xm18.msky130_fd_pr__nfet_g5v0d10v5#sbody = 5.682342e-12
m.xm19.msky130_fd_pr__nfet_g5v0d10v5#body = 1.758199e-11
m.xm19.msky130_fd_pr__nfet_g5v0d10v5#dbody = 3.750506e-11
m.xm19.msky130_fd_pr__nfet_g5v0d10v5#sbody = 1.524090e-11
m.xm20.msky130_fd_pr__nfet_g5v0d10v5#body = 1.134421e-11
m.xm20.msky130_fd_pr__nfet_g5v0d10v5#dbody = 2.836052e-11
m.xm20.msky130_fd_pr__nfet_g5v0d10v5#sbody = 5.672119e-12
m.xm22.msky130_fd_pr__nfet_g5v0d10v5#body = 3.227666e-12
m.xm22.msky130_fd_pr__nfet_g5v0d10v5#dbody = 8.069161e-12
m.xm22.msky130_fd_pr__nfet_g5v0d10v5#sbody = 1.613838e-12
m.xm24.msky130_fd_pr__pfet_g5v0d10v5#body = 2.300000e+00
m.xm24.msky130_fd_pr__pfet_g5v0d10v5#dbody = 2.300000e+00
m.xm24.msky130_fd_pr__pfet_g5v0d10v5#sbody = 2.300000e+00
m.xm26.msky130_fd_pr__pfet_g5v0d10v5#body = 2.300000e+00
m.xm26.msky130_fd_pr__pfet_g5v0d10v5#dbody = 2.300000e+00
m.xm26.msky130_fd_pr__pfet_g5v0d10v5#sbody = 2.300000e+00
mir = 1.144910e+00
net1 = 7.203576e-01
net2 = 4.413760e-05
net3 = 7.801767e-01
net4 = 2.576503e-01
net5 = 1.148217e+00
net6 = 9.052788e-01
net7 = 7.801503e-01
net8 = 1.223984e+00
net9 = 1.235221e+00
net10 = 2.154756e-01
net11 = 9.090437e-01
net12 = 9.090437e-01
net13 = 0.000000e+00
out = 9.090437e-01
pos = 1.092903e+00
q.xq2.qsky130_fd_pr__pnp_05v5_w0p68l0p68#collcx = 2.239965e-03
q.xq3.qsky130_fd_pr__pnp_05v5_w0p68l0p68#collcx = 2.814476e-04
q.xq4.qsky130_fd_pr__pnp_05v5_w0p68l0p68#collcx = 2.814476e-04
q.xq8.qsky130_fd_pr__pnp_05v5_w0p68l0p68#collcx = 2.814476e-04
q.xq10.qsky130_fd_pr__pnp_05v5_w0p68l0p68#collcx = 2.814476e-04
q.xq12.qsky130_fd_pr__pnp_05v5_w0p68l0p68#collcx = 2.814476e-04
q.xq14.qsky130_fd_pr__pnp_05v5_w0p68l0p68#collcx = 2.814476e-04
q.xq16.qsky130_fd_pr__pnp_05v5_w0p68l0p68#collcx = 2.814476e-04
q.xq18.qsky130_fd_pr__pnp_05v5_w0p68l0p68#collcx = 2.814476e-04
vb = 9.074081e-01
vdd = 2.300000e+00
vs#branch = -9.99103e-02
vt#branch = 0.000000e+00
xc1.a = 0.000000e+00
xc1.b1 = 0.000000e+00
xc3.a = 9.090437e-01
xc3.b1 = 9.090437e-01
xr1.xsky130_fd_pr__res_xhigh_po_0p69.ra = 7.855976e-01
xr2.xsky130_fd_pr__res_xhigh_po_0p69.ra = 7.856241e-01
xr3.xsky130_fd_pr__res_xhigh_po_0p69.ra = 3.755832e-03
xr4.xsky130_fd_pr__res_xhigh_po_0p69.ra = 7.221505e-01
xr5.xsky130_fd_pr__res_xhigh_po_0p69.ra = 3.755697e-03
xr6.xsky130_fd_pr__res_xhigh_po_0p69.ra = 5.780268e-03
xr7.xsky130_fd_pr__res_xhigh_po_0p69.ra = 9.090437e-01
xr8.xsky130_fd_pr__res_xhigh_po_0p69.ra = 1.101687e+00
xr9.xsky130_fd_pr__res_xhigh_po_0p69.ra = 9.066056e-03
Doing analysis at TEMP = 27.000000 and TNOM = 27.000000


No. of Data Rows : 91
Error: no such vector PM
Note: Starting true gmin stepping
Trying gmin =   1.0000E-03 Note: One successful gmin step
Trying gmin =   1.0000E-04 Note: One successful gmin step
Trying gmin =   1.0000E-05 Note: One successful gmin step
Trying gmin =   1.0000E-06 Note: One successful gmin step
Trying gmin =   1.0000E-07 Note: One successful gmin step
Trying gmin =   1.0000E-08 Warning: Further gmin increment
Trying gmin =   5.6234E-08 Warning: Further gmin increment
Trying gmin =   8.6596E-08 Note: One successful gmin step
Trying gmin =   6.9783E-08 Warning: Further gmin increment
Trying gmin =   8.2047E-08 Note: One successful gmin step
Trying gmin =   7.5667E-08 Warning: Further gmin increment
Trying gmin =   8.0403E-08 Note: One successful gmin step
Trying gmin =   7.7999E-08 Warning: Further gmin increment
Trying gmin =   7.9795E-08 Note: One successful gmin step
Trying gmin =   7.8892E-08 Note: One successful gmin step
Trying gmin =   7.7556E-08 Warning: Further gmin increment
Trying gmin =   7.8556E-08 Note: One successful gmin step
Trying gmin =   7.8055E-08 Warning: Further gmin increment
Trying gmin =   7.8430E-08 Note: One successful gmin step
Trying gmin =   7.8242E-08 Warning: Further gmin increment
Trying gmin =   7.8383E-08 Note: One successful gmin step
Trying gmin =   7.8313E-08 Note: One successful gmin step
Trying gmin =   7.8207E-08 Warning: Further gmin increment
Trying gmin =   7.8286E-08 Warning: Further gmin increment
Trying gmin =   7.8306E-08 Note: One successful gmin step
Trying gmin =   7.8296E-08 Warning: Further gmin increment
Trying gmin =   7.8304E-08 Note: One successful gmin step
Trying gmin =   7.8300E-08 Warning: Last gmin step failed
Warning: True gmin stepping failed
Note: Starting dynamic gmin stepping
Trying gmin =   1.0000E-03 Note: One successful gmin step
Trying gmin =   1.0000E-04 Note: One successful gmin step
Trying gmin =   1.0000E-05 Warning: Further gmin increment
Trying gmin =   5.6234E-05 Note: One successful gmin step
Trying gmin =   2.3714E-05 Note: One successful gmin step
Trying gmin =   6.4938E-06 Note: One successful gmin step
Trying gmin =   9.3057E-07 Note: One successful gmin step
Trying gmin =   3.5227E-07 Warning: Further gmin increment
Trying gmin =   7.2993E-07 Note: One successful gmin step
Trying gmin =   5.0708E-07 Note: One successful gmin step
Trying gmin =   2.9361E-07 Warning: Further gmin increment
Trying gmin =   4.4234E-07 Note: One successful gmin step
Trying gmin =   3.6038E-07 Warning: Further gmin increment
Trying gmin =   4.2025E-07 Note: One successful gmin step
Trying gmin =   3.8916E-07 Note: One successful gmin step
Trying gmin =   3.4680E-07 Warning: Further gmin increment
Trying gmin =   3.7811E-07 Note: One successful gmin step
Trying gmin =   3.6212E-07 Note: One successful gmin step
Trying gmin =   3.3938E-07 Warning: Further gmin increment
Trying gmin =   3.5629E-07 Warning: Further gmin increment
Trying gmin =   3.6065E-07 Warning: Further gmin increment
Trying gmin =   3.6175E-07 Warning: Further gmin increment
Trying gmin =   3.6202E-07 Warning: Further gmin increment
Trying gmin =   3.6209E-07 Warning: Further gmin increment
Trying gmin =   3.6211E-07 Warning: Last gmin step failed
Warning: Dynamic gmin stepping failed
Note: Starting source stepping
Supplies reduced to   0.0000% Note: One successful source step
Supplies reduced to   0.1000% Note: One successful source step
Supplies reduced to   0.2000% Note: One successful source step
Supplies reduced to   0.3500% Note: One successful source step
Supplies reduced to   0.5750% Note: One successful source step
Supplies reduced to   0.9125% Note: One successful source step
Supplies reduced to   1.4188% Note: One successful source step
Supplies reduced to   2.1781% Note: One successful source step
Supplies reduced to   3.3172% Note: One successful source step
Supplies reduced to   5.0258% Note: One successful source step
Supplies reduced to   7.5887% Note: One successful source step
Supplies reduced to  11.4330% Note: One successful source step
Supplies reduced to  17.1995% Note: One successful source step
Supplies reduced to  25.8493% Note: One successful source step
Supplies reduced to  38.8239% Note: One successful source step
Supplies reduced to  45.3112% Note: One successful source step
Supplies reduced to  51.7985% Note: One successful source step
Supplies reduced to  55.0422% Note: One successful source step
Supplies reduced to  59.9077% Note: One successful source step
Supplies reduced to  67.2059% Note: One successful source step
Supplies reduced to  78.1533% Supplies reduced to  67.2059% Note: One successful source step
Supplies reduced to  68.2059% Note: One successful source step
Supplies reduced to  69.7059% Note: One successful source step
Supplies reduced to  71.9559% Supplies reduced to  69.7059% Note: One successful source step
Supplies reduced to  70.0434% Note: One successful source step
Supplies reduced to  70.5497% Note: One successful source step
Supplies reduced to  71.3090% Note: One successful source step
Supplies reduced to  72.4481% Supplies reduced to  71.3090% Note: One successful source step
Supplies reduced to  71.4799% Note: One successful source step
Supplies reduced to  71.7362% Note: One successful source step
Supplies reduced to  72.1206% Supplies reduced to  71.7362% Note: One successful source step
Supplies reduced to  71.7939% Supplies reduced to  71.7362% Note: One successful source step
Supplies reduced to  71.7448% Note: One successful source step
Supplies reduced to  71.7578% Note: One successful source step
Supplies reduced to  71.7773% Supplies reduced to  71.7578% Note: One successful source step
Supplies reduced to  71.7607% Note: One successful source step
Supplies reduced to  71.7651% Supplies reduced to  71.7607% Note: One successful source step
Supplies reduced to  71.7614% Note: One successful source step
Supplies reduced to  71.7624% Supplies reduced to  71.7614% Note: One successful source step
Supplies reduced to  71.7615% Note: One successful source step
Supplies reduced to  71.7618% Note: One successful source step
Supplies reduced to  71.7621% Supplies reduced to  71.7618% Note: One successful source step
Supplies reduced to  71.7618% Warning: source stepping failed
doAnalyses: Too many iterations without convergence

dc simulation(s) aborted
Error(parse.c--checkvalid): vldo_sup_2_8: zero length vector.
Error: RHS "abs((vldo_sup_2_8-vldo_sup_2)/0.8)" invalid
Error(parse.c--checkvalid): line_reg: zero length vector.
Error(parse.c--checkvalid): vin: zero length vector.
Error: RHS "vin-1.764" invalid
Error(parse.c--checkvalid): dropout: zero length vector.
Error: no such vector dropout
Note: No ".plot", ".print", or ".fourier" lines; no simulations run

Error: measure  pm  (AT) : out of interval
 meas ac pm find p when vdb(ldo_out)=0 failed!

Doing analysis at TEMP = 27.000000 and TNOM = 27.000000


No. of Data Rows : 91
psrr100             =  -7.363543e+01
psrr100k            =  -2.560659e+01
Doing analysis at TEMP = 27.000000 and TNOM = 27.000000


No. of Data Rows : 86
temp_coeff = 3.007369e+01
Doing analysis at TEMP = 27.000000 and TNOM = 27.000000


Error: measure  vldo_sup_2  (AT) : out of interval
 meas dc vldo_sup_2 find ldo_out at=2 failed!


Error: measure  vldo_sup_2_8  (AT) : out of interval
 meas dc vldo_sup_2_8 find ldo_out at=2.8 failed!


Error: measure  vin  (WHEN) : out of interval
 meas dc vin when v(ldo_out)=1.764 failed!

