 Reference value :  0.00000e+00
No compatibility mode selected!


Circuit: * ldo netlist 

Doing analysis at TEMP = 27.000000 and TNOM = 27.000000


No. of Data Rows : 1
bg_out = 1.097239e+00
inn = 1.141765e+00
inp = 1.141694e+00
l1#branch = 0.000000e+00
ldo_out = 1.803575e+00
m.xm1.msky130_fd_pr__nfet_g5v0d10v5#body = 1.688425e-11
m.xm1.msky130_fd_pr__nfet_g5v0d10v5#dbody = 3.769186e-11
m.xm1.msky130_fd_pr__nfet_g5v0d10v5#sbody = 1.296090e-11
m.xm2.msky130_fd_pr__pfet_g5v0d10v5#body = 2.300000e+00
m.xm2.msky130_fd_pr__pfet_g5v0d10v5#dbody = 2.300000e+00
m.xm2.msky130_fd_pr__pfet_g5v0d10v5#sbody = 2.300000e+00
m.xm3.msky130_fd_pr__pfet_g5v0d10v5#body = 2.300000e+00
m.xm3.msky130_fd_pr__pfet_g5v0d10v5#dbody = 2.300000e+00
m.xm3.msky130_fd_pr__pfet_g5v0d10v5#sbody = 2.300000e+00
m.xm4.msky130_fd_pr__pfet_g5v0d10v5#body = 2.300000e+00
m.xm4.msky130_fd_pr__pfet_g5v0d10v5#dbody = 2.300000e+00
m.xm4.msky130_fd_pr__pfet_g5v0d10v5#sbody = 2.300000e+00
m.xm5.msky130_fd_pr__pfet_g5v0d10v5#body = 2.300000e+00
m.xm5.msky130_fd_pr__pfet_g5v0d10v5#dbody = 2.300000e+00
m.xm5.msky130_fd_pr__pfet_g5v0d10v5#sbody = 2.300000e+00
m.xm6.msky130_fd_pr__nfet_g5v0d10v5#body = 1.244236e-11
m.xm6.msky130_fd_pr__nfet_g5v0d10v5#dbody = 3.110588e-11
m.xm6.msky130_fd_pr__nfet_g5v0d10v5#sbody = 6.221183e-12
m.xm7.msky130_fd_pr__pfet_g5v0d10v5#body = 2.300000e+00
m.xm7.msky130_fd_pr__pfet_g5v0d10v5#dbody = 2.300000e+00
m.xm7.msky130_fd_pr__pfet_g5v0d10v5#sbody = 2.300000e+00
m.xm8.msky130_fd_pr__pfet_g5v0d10v5#body = 2.300000e+00
m.xm8.msky130_fd_pr__pfet_g5v0d10v5#dbody = 2.300000e+00
m.xm8.msky130_fd_pr__pfet_g5v0d10v5#sbody = 2.300000e+00
m.xm9.msky130_fd_pr__nfet_g5v0d10v5#body = 1.763163e-11
m.xm9.msky130_fd_pr__nfet_g5v0d10v5#dbody = 4.064662e-11
m.xm9.msky130_fd_pr__nfet_g5v0d10v5#sbody = 1.224826e-11
m.xm10.msky130_fd_pr__nfet_g5v0d10v5#body = 1.734801e-11
m.xm10.msky130_fd_pr__nfet_g5v0d10v5#dbody = 3.993758e-11
m.xm10.msky130_fd_pr__nfet_g5v0d10v5#sbody = 1.210646e-11
m.xm11.msky130_fd_pr__pfet_g5v0d10v5#body = 2.300000e+00
m.xm11.msky130_fd_pr__pfet_g5v0d10v5#dbody = 2.300000e+00
m.xm11.msky130_fd_pr__pfet_g5v0d10v5#sbody = 2.300000e+00
m.xm12.msky130_fd_pr__pfet_g5v0d10v5#body = 2.300000e+00
m.xm12.msky130_fd_pr__pfet_g5v0d10v5#dbody = 2.300000e+00
m.xm12.msky130_fd_pr__pfet_g5v0d10v5#sbody = 2.300000e+00
m.xm13.msky130_fd_pr__nfet_g5v0d10v5#body = 1.714876e-12
m.xm13.msky130_fd_pr__nfet_g5v0d10v5#dbody = 4.287181e-12
m.xm13.msky130_fd_pr__nfet_g5v0d10v5#sbody = 8.574473e-13
m.xm14.msky130_fd_pr__pfet_g5v0d10v5#body = 2.300000e+00
m.xm14.msky130_fd_pr__pfet_g5v0d10v5#dbody = 2.300000e+00
m.xm14.msky130_fd_pr__pfet_g5v0d10v5#sbody = 2.300000e+00
m.xm15.msky130_fd_pr__nfet_g5v0d10v5#body = 1.777181e-15
m.xm15.msky130_fd_pr__nfet_g5v0d10v5#dbody = 4.442909e-15
m.xm15.msky130_fd_pr__nfet_g5v0d10v5#sbody = 8.886345e-16
m.xm16.msky130_fd_pr__nfet_g5v0d10v5#body = 4.303082e-11
m.xm16.msky130_fd_pr__nfet_g5v0d10v5#dbody = 7.902416e-11
m.xm16.msky130_fd_pr__nfet_g5v0d10v5#sbody = 5.006829e-11
m.xm17.msky130_fd_pr__pfet_g5v0d10v5#body = 2.300000e+00
m.xm17.msky130_fd_pr__pfet_g5v0d10v5#dbody = 2.300000e+00
m.xm17.msky130_fd_pr__pfet_g5v0d10v5#sbody = 2.300000e+00
m.xm18.msky130_fd_pr__nfet_g5v0d10v5#body = 1.174751e-11
m.xm18.msky130_fd_pr__nfet_g5v0d10v5#dbody = 2.936877e-11
m.xm18.msky130_fd_pr__nfet_g5v0d10v5#sbody = 5.873769e-12
m.xm19.msky130_fd_pr__nfet_g5v0d10v5#body = 1.700307e-11
m.xm19.msky130_fd_pr__nfet_g5v0d10v5#dbody = 3.798891e-11
m.xm19.msky130_fd_pr__nfet_g5v0d10v5#sbody = 1.302031e-11
m.xm20.msky130_fd_pr__nfet_g5v0d10v5#body = 1.307480e-11
m.xm20.msky130_fd_pr__nfet_g5v0d10v5#dbody = 3.268697e-11
m.xm20.msky130_fd_pr__nfet_g5v0d10v5#sbody = 6.537410e-12
m.xm22.msky130_fd_pr__nfet_g5v0d10v5#body = 2.262094e-12
m.xm22.msky130_fd_pr__nfet_g5v0d10v5#dbody = 5.655229e-12
m.xm22.msky130_fd_pr__nfet_g5v0d10v5#sbody = 1.131051e-12
m.xm24.msky130_fd_pr__pfet_g5v0d10v5#body = 2.300000e+00
m.xm24.msky130_fd_pr__pfet_g5v0d10v5#dbody = 2.300000e+00
m.xm24.msky130_fd_pr__pfet_g5v0d10v5#sbody = 2.300000e+00
m.xm26.msky130_fd_pr__pfet_g5v0d10v5#body = 2.300000e+00
m.xm26.msky130_fd_pr__pfet_g5v0d10v5#dbody = 2.300000e+00
m.xm26.msky130_fd_pr__pfet_g5v0d10v5#sbody = 2.300000e+00
mir = 1.169639e+00
net1 = 7.262452e-01
net2 = 1.367406e-04
net3 = 7.859391e-01
net4 = 1.804012e-01
net5 = 1.179145e+00
net6 = 9.948212e-01
net7 = 7.858665e-01
net8 = 1.250302e+00
net9 = 1.272991e+00
net10 = 1.370581e-01
net11 = 9.396680e-01
net12 = 9.396680e-01
net13 = 0.000000e+00
out = 9.396680e-01
pos = 1.097451e+00
q.xq2.qsky130_fd_pr__pnp_05v5_w0p68l0p68#collcx = 2.179789e-03
q.xq3.qsky130_fd_pr__pnp_05v5_w0p68l0p68#collcx = 2.746258e-04
q.xq4.qsky130_fd_pr__pnp_05v5_w0p68l0p68#collcx = 2.746258e-04
q.xq8.qsky130_fd_pr__pnp_05v5_w0p68l0p68#collcx = 2.746258e-04
q.xq10.qsky130_fd_pr__pnp_05v5_w0p68l0p68#collcx = 2.746258e-04
q.xq12.qsky130_fd_pr__pnp_05v5_w0p68l0p68#collcx = 2.746258e-04
q.xq14.qsky130_fd_pr__pnp_05v5_w0p68l0p68#collcx = 2.746258e-04
q.xq16.qsky130_fd_pr__pnp_05v5_w0p68l0p68#collcx = 2.746258e-04
q.xq18.qsky130_fd_pr__pnp_05v5_w0p68l0p68#collcx = 2.746258e-04
vb = 1.045851e+00
vdd = 2.300000e+00
vs#branch = -1.00323e-01
vt#branch = 0.000000e+00
xc1.a = 0.000000e+00
xc1.b1 = 0.000000e+00
xc3.a = 9.396680e-01
xc3.b1 = 9.396680e-01
xr1.xsky130_fd_pr__res_xhigh_po_0p69.ra = 7.913358e-01
xr2.xsky130_fd_pr__res_xhigh_po_0p69.ra = 7.914084e-01
xr3.xsky130_fd_pr__res_xhigh_po_0p69.ra = 3.785392e-03
xr4.xsky130_fd_pr__res_xhigh_po_0p69.ra = 7.280329e-01
xr5.xsky130_fd_pr__res_xhigh_po_0p69.ra = 3.785020e-03
xr6.xsky130_fd_pr__res_xhigh_po_0p69.ra = 5.805783e-03
xr7.xsky130_fd_pr__res_xhigh_po_0p69.ra = 9.396680e-01
xr8.xsky130_fd_pr__res_xhigh_po_0p69.ra = 1.106273e+00
xr9.xsky130_fd_pr__res_xhigh_po_0p69.ra = 9.107000e-03
Doing analysis at TEMP = 27.000000 and TNOM = 27.000000


No. of Data Rows : 91
Error: no such vector PM
Note: Starting true gmin stepping
Trying gmin =   1.0000E-03 Note: One successful gmin step
Trying gmin =   1.0000E-04 Note: One successful gmin step
Trying gmin =   1.0000E-05 Note: One successful gmin step
Trying gmin =   1.0000E-06 Warning: Further gmin increment
Trying gmin =   5.6234E-06 Note: One successful gmin step
Trying gmin =   2.3714E-06 Note: One successful gmin step
Trying gmin =   6.4938E-07 Warning: Further gmin increment
Trying gmin =   1.7154E-06 Note: One successful gmin step
Trying gmin =   1.0554E-06 Note: One successful gmin step
Trying gmin =   5.0937E-07 Note: One successful gmin step
Trying gmin =   1.7077E-07 Warning: Further gmin increment
Trying gmin =   3.8760E-07 Note: One successful gmin step
Trying gmin =   2.5728E-07 Note: One successful gmin step
Trying gmin =   1.3913E-07 Note: One successful gmin step
Trying gmin =   5.5333E-08 Note: One successful gmin step
Trying gmin =   1.3877E-08 Note: One successful gmin step
Trying gmin =   1.7430E-09 Note: One successful gmin step
Trying gmin =   1.7430E-10 Note: One successful gmin step
Trying gmin =   1.7430E-11 Note: One successful gmin step
Trying gmin =   1.7430E-12 Note: One successful gmin step
Trying gmin =   1.0000E-12 Note: One successful gmin step
Note: True gmin stepping completed
 Reference value :  2.80000e+00Note: Starting true gmin stepping
Trying gmin =   1.0000E-03 Note: One successful gmin step
Trying gmin =   1.0000E-04 Note: One successful gmin step
Trying gmin =   1.0000E-05 Note: One successful gmin step
Trying gmin =   1.0000E-06 Note: One successful gmin step
Trying gmin =   1.0000E-07 Note: One successful gmin step
Trying gmin =   1.0000E-08 Note: One successful gmin step
Trying gmin =   1.0000E-09 Note: One successful gmin step
Trying gmin =   1.0000E-10 Note: One successful gmin step
Trying gmin =   1.0000E-11 Warning: Further gmin increment
Trying gmin =   5.6234E-11 Note: One successful gmin step
Trying gmin =   2.3714E-11 Note: One successful gmin step
Trying gmin =   6.4938E-12 Warning: Further gmin increment
Trying gmin =   1.7154E-11 Note: One successful gmin step
Trying gmin =   1.0554E-11 Note: One successful gmin step
Trying gmin =   6.4938E-12 Note: One successful gmin step
Trying gmin =   3.1340E-12 Note: One successful gmin step
Trying gmin =   1.0507E-12 Note: One successful gmin step
Trying gmin =   1.0000E-12 Note: One successful gmin step
Note: True gmin stepping completed
 Reference value :  1.14000e+00Note: Starting true gmin stepping
Trying gmin =   1.0000E-03 Note: One successful gmin step
Trying gmin =   1.0000E-04 Note: One successful gmin step
Trying gmin =   1.0000E-05 Note: One successful gmin step
Trying gmin =   1.0000E-06 Note: One successful gmin step
Trying gmin =   1.0000E-07 Note: One successful gmin step
Trying gmin =   1.0000E-08 Note: One successful gmin step
Trying gmin =   1.0000E-09 Note: One successful gmin step
Trying gmin =   1.0000E-10 Note: One successful gmin step
Trying gmin =   1.0000E-11 Warning: Further gmin increment
Trying gmin =   5.6234E-11 Note: One successful gmin step
Trying gmin =   3.1623E-11 Note: One successful gmin step
Trying gmin =   1.3335E-11 Note: One successful gmin step
Trying gmin =   3.6517E-12 Warning: Further gmin increment
Trying gmin =   9.6466E-12 Note: One successful gmin step
Trying gmin =   5.9352E-12 Warning: Further gmin increment
Trying gmin =   8.5436E-12 Note: One successful gmin step
Trying gmin =   7.5667E-12 Note: One successful gmin step
Trying gmin =   6.3067E-12 Note: One successful gmin step
Trying gmin =   4.7990E-12 Note: One successful gmin step
Trying gmin =   3.1855E-12 Note: One successful gmin step
Trying gmin =   1.7227E-12 Note: One successful gmin step
Trying gmin =   1.0000E-12 Note: One successful gmin step
Note: True gmin stepping completed
 Reference value :  1.12000e+00Note: Starting true gmin stepping
Trying gmin =   1.0000E-03 Note: One successful gmin step
Trying gmin =   1.0000E-04 Note: One successful gmin step
Trying gmin =   1.0000E-05 Note: One successful gmin step
Trying gmin =   1.0000E-06 Note: One successful gmin step
Trying gmin =   1.0000E-07 Note: One successful gmin step
Trying gmin =   1.0000E-08 Note: One successful gmin step
Trying gmin =   1.0000E-09 Note: One successful gmin step
Trying gmin =   1.0000E-10 Note: One successful gmin step
Trying gmin =   1.0000E-11 Note: One successful gmin step
Trying gmin =   1.0000E-12 Warning: Further gmin increment
Trying gmin =   5.6234E-12 Note: One successful gmin step
Trying gmin =   2.3714E-12 Note: One successful gmin step
Trying gmin =   1.0000E-12 Warning: Further gmin increment
Trying gmin =   1.9110E-12 Note: One successful gmin step
Trying gmin =   1.3824E-12 Note: One successful gmin step
Trying gmin =   1.0000E-12 Warning: Further gmin increment
Trying gmin =   1.2749E-12 Note: One successful gmin step
Trying gmin =   1.1291E-12 Note: One successful gmin step
Trying gmin =   1.0000E-12 Warning: Further gmin increment
Trying gmin =   1.0953E-12 Note: One successful gmin step
Trying gmin =   1.0626E-12 Note: One successful gmin step
Trying gmin =   1.0153E-12 Note: One successful gmin step
Trying gmin =   1.0000E-12 Warning: Further gmin increment
Trying gmin =   1.0114E-12 Note: One successful gmin step
Trying gmin =   1.0076E-12 Warning: Further gmin increment
Trying gmin =   1.0105E-12 Note: One successful gmin step
Trying gmin =   1.0095E-12 Note: One successful gmin step
Trying gmin =   1.0086E-12 Note: One successful gmin step
Trying gmin =   1.0076E-12 Warning: Further gmin increment
Trying gmin =   1.0083E-12 Note: One successful gmin step
Trying gmin =   1.0081E-12 Note: One successful gmin step
Trying gmin =   1.0079E-12 Warning: Further gmin increment
Trying gmin =   1.0080E-12 Warning: Further gmin increment
Trying gmin =   1.0081E-12 Warning: Last gmin step failed
Warning: True gmin stepping failed
Note: Starting dynamic gmin stepping
Trying gmin =   1.0000E-03 Note: One successful gmin step
Trying gmin =   1.0000E-04 Note: One successful gmin step
Trying gmin =   1.0000E-05 Note: One successful gmin step
Trying gmin =   1.0000E-06 Note: One successful gmin step
Trying gmin =   1.0000E-07 Note: One successful gmin step
Trying gmin =   1.0000E-08 Note: One successful gmin step
Trying gmin =   1.0000E-09 Note: One successful gmin step
Trying gmin =   1.0000E-10 Note: One successful gmin step
Trying gmin =   1.0000E-11 Note: One successful gmin step
Trying gmin =   1.0000E-12 Note: One successful gmin step
Trying gmin =   1.0000E-12 Note: One successful gmin step
Warning: Dynamic gmin stepping failed
Note: Starting source stepping
Supplies reduced to   0.0000% Note: One successful source step
Supplies reduced to   0.1000% Note: One successful source step
Supplies reduced to   0.2000% Note: One successful source step
Supplies reduced to   0.3500% Note: One successful source step
Supplies reduced to   0.5750% Note: One successful source step
Supplies reduced to   0.9125% Note: One successful source step
Supplies reduced to   1.4188% Note: One successful source step
Supplies reduced to   2.1781% Note: One successful source step
Supplies reduced to   3.3172% Note: One successful source step
Supplies reduced to   5.0258% Note: One successful source step
Supplies reduced to   7.5887% Note: One successful source step
Supplies reduced to  11.4330% Note: One successful source step
Supplies reduced to  17.1995% Note: One successful source step
Supplies reduced to  25.8493% Note: One successful source step
Supplies reduced to  38.8239% Note: One successful source step
Supplies reduced to  58.2859% Note: One successful source step
Supplies reduced to  87.4788% Note: One successful source step
Supplies reduced to 100.0000% Supplies reduced to  87.4788% Note: One successful source step
Supplies reduced to  88.4788% Note: One successful source step
Supplies reduced to  89.9788% Note: One successful source step
Supplies reduced to  92.2288% Note: One successful source step
Supplies reduced to  94.4788% Note: One successful source step
Supplies reduced to  97.8538% Note: One successful source step
Supplies reduced to 100.0000% Supplies reduced to  97.8538% Note: One successful source step
Supplies reduced to  98.3600% Note: One successful source step
Supplies reduced to  99.1194% Note: One successful source step
Supplies reduced to  99.8788% Note: One successful source step
Supplies reduced to 100.0000% Supplies reduced to  99.8788% Note: One successful source step
Supplies reduced to 100.0000% Note: One successful source step
Note: Source stepping completed
 Reference value :  7.80000e-01
Error: measure  pm  (AT) : out of interval
 meas ac pm find p when vdb(ldo_out)=0 failed!

Doing analysis at TEMP = 27.000000 and TNOM = 27.000000


No. of Data Rows : 91
psrr100             =  -8.392993e+01
psrr100k            =  -2.468280e+01
Doing analysis at TEMP = 27.000000 and TNOM = 27.000000


No. of Data Rows : 86
temp_coeff = 3.308634e+01
Doing analysis at TEMP = 27.000000 and TNOM = 27.000000


No. of Data Rows : 141
vldo_sup_2          =  1.803484e+00
vldo_sup_2_8        =  1.803565e+00
line_reg = 1.012500e-04
Note: No ".plot", ".print", or ".fourier" lines; no simulations run
vin                 =  1.901640e+00
dropout = 1.376400e-01
