 Reference value :  0.00000e+00
No compatibility mode selected!


Circuit: * ldo netlist 

Doing analysis at TEMP = 27.000000 and TNOM = 27.000000


No. of Data Rows : 1
bg_out = 1.094389e+00
inn = 1.137106e+00
inp = 1.137089e+00
l1#branch = 0.000000e+00
ldo_out = 1.799359e+00
m.xm1.msky130_fd_pr__nfet_g5v0d10v5#body = 1.999463e-11
m.xm1.msky130_fd_pr__nfet_g5v0d10v5#dbody = 4.351666e-11
m.xm1.msky130_fd_pr__nfet_g5v0d10v5#sbody = 1.646724e-11
m.xm2.msky130_fd_pr__pfet_g5v0d10v5#body = 2.500000e+00
m.xm2.msky130_fd_pr__pfet_g5v0d10v5#dbody = 2.500000e+00
m.xm2.msky130_fd_pr__pfet_g5v0d10v5#sbody = 2.500000e+00
m.xm3.msky130_fd_pr__pfet_g5v0d10v5#body = 2.500000e+00
m.xm3.msky130_fd_pr__pfet_g5v0d10v5#dbody = 2.500000e+00
m.xm3.msky130_fd_pr__pfet_g5v0d10v5#sbody = 2.500000e+00
m.xm4.msky130_fd_pr__pfet_g5v0d10v5#body = 2.500000e+00
m.xm4.msky130_fd_pr__pfet_g5v0d10v5#dbody = 2.500000e+00
m.xm4.msky130_fd_pr__pfet_g5v0d10v5#sbody = 2.500000e+00
m.xm5.msky130_fd_pr__pfet_g5v0d10v5#body = 2.500000e+00
m.xm5.msky130_fd_pr__pfet_g5v0d10v5#dbody = 2.500000e+00
m.xm5.msky130_fd_pr__pfet_g5v0d10v5#sbody = 2.500000e+00
m.xm6.msky130_fd_pr__nfet_g5v0d10v5#body = 1.137200e-11
m.xm6.msky130_fd_pr__nfet_g5v0d10v5#dbody = 2.842999e-11
m.xm6.msky130_fd_pr__nfet_g5v0d10v5#sbody = 5.686005e-12
m.xm7.msky130_fd_pr__pfet_g5v0d10v5#body = 2.500000e+00
m.xm7.msky130_fd_pr__pfet_g5v0d10v5#dbody = 2.500000e+00
m.xm7.msky130_fd_pr__pfet_g5v0d10v5#sbody = 2.500000e+00
m.xm8.msky130_fd_pr__pfet_g5v0d10v5#body = 2.500000e+00
m.xm8.msky130_fd_pr__pfet_g5v0d10v5#dbody = 2.500000e+00
m.xm8.msky130_fd_pr__pfet_g5v0d10v5#sbody = 2.500000e+00
m.xm9.msky130_fd_pr__nfet_g5v0d10v5#body = 2.059492e-11
m.xm9.msky130_fd_pr__nfet_g5v0d10v5#dbody = 4.609224e-11
m.xm9.msky130_fd_pr__nfet_g5v0d10v5#sbody = 1.569244e-11
m.xm10.msky130_fd_pr__nfet_g5v0d10v5#body = 2.031970e-11
m.xm10.msky130_fd_pr__nfet_g5v0d10v5#dbody = 4.540424e-11
m.xm10.msky130_fd_pr__nfet_g5v0d10v5#sbody = 1.555483e-11
m.xm11.msky130_fd_pr__pfet_g5v0d10v5#body = 2.500000e+00
m.xm11.msky130_fd_pr__pfet_g5v0d10v5#dbody = 2.500000e+00
m.xm11.msky130_fd_pr__pfet_g5v0d10v5#sbody = 2.500000e+00
m.xm12.msky130_fd_pr__pfet_g5v0d10v5#body = 2.500000e+00
m.xm12.msky130_fd_pr__pfet_g5v0d10v5#dbody = 2.500000e+00
m.xm12.msky130_fd_pr__pfet_g5v0d10v5#sbody = 2.500000e+00
m.xm13.msky130_fd_pr__nfet_g5v0d10v5#body = 2.696132e-12
m.xm13.msky130_fd_pr__nfet_g5v0d10v5#dbody = 6.740319e-12
m.xm13.msky130_fd_pr__nfet_g5v0d10v5#sbody = 1.348077e-12
m.xm14.msky130_fd_pr__pfet_g5v0d10v5#body = 2.500000e+00
m.xm14.msky130_fd_pr__pfet_g5v0d10v5#dbody = 2.500000e+00
m.xm14.msky130_fd_pr__pfet_g5v0d10v5#sbody = 2.500000e+00
m.xm15.msky130_fd_pr__nfet_g5v0d10v5#body = 1.357187e-15
m.xm15.msky130_fd_pr__nfet_g5v0d10v5#dbody = 3.392872e-15
m.xm15.msky130_fd_pr__nfet_g5v0d10v5#sbody = 6.786876e-16
m.xm16.msky130_fd_pr__nfet_g5v0d10v5#body = 4.547248e-11
m.xm16.msky130_fd_pr__nfet_g5v0d10v5#dbody = 8.524489e-11
m.xm16.msky130_fd_pr__nfet_g5v0d10v5#sbody = 5.117254e-11
m.xm17.msky130_fd_pr__pfet_g5v0d10v5#body = 2.500000e+00
m.xm17.msky130_fd_pr__pfet_g5v0d10v5#dbody = 2.500000e+00
m.xm17.msky130_fd_pr__pfet_g5v0d10v5#sbody = 2.500000e+00
m.xm18.msky130_fd_pr__nfet_g5v0d10v5#body = 2.381448e-11
m.xm18.msky130_fd_pr__nfet_g5v0d10v5#dbody = 5.675404e-11
m.xm18.msky130_fd_pr__nfet_g5v0d10v5#sbody = 1.190725e-11
m.xm19.msky130_fd_pr__nfet_g5v0d10v5#body = 2.002488e-11
m.xm19.msky130_fd_pr__nfet_g5v0d10v5#dbody = 4.359227e-11
m.xm19.msky130_fd_pr__nfet_g5v0d10v5#sbody = 1.648237e-11
m.xm20.msky130_fd_pr__nfet_g5v0d10v5#body = 1.139429e-11
m.xm20.msky130_fd_pr__nfet_g5v0d10v5#dbody = 2.848571e-11
m.xm20.msky130_fd_pr__nfet_g5v0d10v5#sbody = 5.697158e-12
m.xm22.msky130_fd_pr__nfet_g5v0d10v5#body = 3.237676e-12
m.xm22.msky130_fd_pr__nfet_g5v0d10v5#dbody = 8.094186e-12
m.xm22.msky130_fd_pr__nfet_g5v0d10v5#sbody = 1.618843e-12
m.xm24.msky130_fd_pr__pfet_g5v0d10v5#body = 2.500000e+00
m.xm24.msky130_fd_pr__pfet_g5v0d10v5#dbody = 2.500000e+00
m.xm24.msky130_fd_pr__pfet_g5v0d10v5#sbody = 2.500000e+00
m.xm26.msky130_fd_pr__pfet_g5v0d10v5#body = 2.500000e+00
m.xm26.msky130_fd_pr__pfet_g5v0d10v5#dbody = 2.500000e+00
m.xm26.msky130_fd_pr__pfet_g5v0d10v5#sbody = 2.500000e+00
mir = 1.340428e+00
net1 = 7.215548e-01
net2 = 1.044379e-04
net3 = 7.815451e-01
net4 = 2.584511e-01
net5 = 1.342847e+00
net6 = 9.091969e-01
net7 = 7.815277e-01
net8 = 1.409538e+00
net9 = 1.431554e+00
net10 = 2.155618e-01
net11 = 1.793744e+00
net12 = 1.793744e+00
net13 = 0.000000e+00
out = 1.793744e+00
pos = 1.094585e+00
q.xq2.qsky130_fd_pr__pnp_05v5_w0p68l0p68#collcx = 2.339238e-03
q.xq3.qsky130_fd_pr__pnp_05v5_w0p68l0p68#collcx = 2.940000e-04
q.xq4.qsky130_fd_pr__pnp_05v5_w0p68l0p68#collcx = 2.940000e-04
q.xq8.qsky130_fd_pr__pnp_05v5_w0p68l0p68#collcx = 2.940000e-04
q.xq10.qsky130_fd_pr__pnp_05v5_w0p68l0p68#collcx = 2.940000e-04
q.xq12.qsky130_fd_pr__pnp_05v5_w0p68l0p68#collcx = 2.940000e-04
q.xq14.qsky130_fd_pr__pnp_05v5_w0p68l0p68#collcx = 2.940000e-04
q.xq16.qsky130_fd_pr__pnp_05v5_w0p68l0p68#collcx = 2.940000e-04
q.xq18.qsky130_fd_pr__pnp_05v5_w0p68l0p68#collcx = 2.940000e-04
vb = 9.114142e-01
vdd = 2.500000e+00
vs#branch = -1.84289e-04
vt#branch = 0.000000e+00
xc1.a = 0.000000e+00
xc1.b1 = 0.000000e+00
xc3.a = 1.793744e+00
xc3.b1 = 1.793744e+00
xr1.xsky130_fd_pr__res_xhigh_po_0p69.ra = 7.844978e-01
xr2.xsky130_fd_pr__res_xhigh_po_0p69.ra = 7.845152e-01
xr3.xsky130_fd_pr__res_xhigh_po_0p69.ra = 2.048295e-03
xr4.xsky130_fd_pr__res_xhigh_po_0p69.ra = 7.225318e-01
xr5.xsky130_fd_pr__res_xhigh_po_0p69.ra = 2.048247e-03
xr6.xsky130_fd_pr__res_xhigh_po_0p69.ra = 3.151444e-03
xr7.xsky130_fd_pr__res_xhigh_po_0p69.ra = 1.793744e+00
xr8.xsky130_fd_pr__res_xhigh_po_0p69.ra = 1.099372e+00
xr9.xsky130_fd_pr__res_xhigh_po_0p69.ra = 4.941062e-03
Doing analysis at TEMP = 27.000000 and TNOM = 27.000000


No. of Data Rows : 91
Note: Starting true gmin stepping
Trying gmin =   1.0000E-03 Note: One successful gmin step
Trying gmin =   1.0000E-04 Note: One successful gmin step
Trying gmin =   1.0000E-05 Note: One successful gmin step
Trying gmin =   1.0000E-06 Note: One successful gmin step
Trying gmin =   1.0000E-07 Note: One successful gmin step
Trying gmin =   1.0000E-08 Warning: Further gmin increment
Trying gmin =   5.6234E-08 Warning: Further gmin increment
Trying gmin =   8.6596E-08 Note: One successful gmin step
Trying gmin =   6.9783E-08 Warning: Further gmin increment
Trying gmin =   8.2047E-08 Warning: Further gmin increment
Trying gmin =   8.5436E-08 Note: One successful gmin step
Trying gmin =   8.3724E-08 Warning: Further gmin increment
Trying gmin =   8.5005E-08 Note: One successful gmin step
Trying gmin =   8.4362E-08 Note: One successful gmin step
Trying gmin =   8.3407E-08 Warning: Further gmin increment
Trying gmin =   8.4122E-08 Note: One successful gmin step
Trying gmin =   8.3764E-08 Warning: Further gmin increment
Trying gmin =   8.4033E-08 Warning: Further gmin increment
Trying gmin =   8.4100E-08 Note: One successful gmin step
Trying gmin =   8.4066E-08 Warning: Further gmin increment
Trying gmin =   8.4092E-08 Warning: Further gmin increment
Trying gmin =   8.4098E-08 Warning: Last gmin step failed
Warning: True gmin stepping failed
Note: Starting dynamic gmin stepping
Trying gmin =   1.0000E-03 Note: One successful gmin step
Trying gmin =   1.0000E-04 Note: One successful gmin step
Trying gmin =   1.0000E-05 Note: One successful gmin step
Trying gmin =   1.0000E-06 Warning: Further gmin increment
Trying gmin =   5.6234E-06 Note: One successful gmin step
Trying gmin =   3.1623E-06 Note: One successful gmin step
Trying gmin =   1.3335E-06 Warning: Further gmin increment
Trying gmin =   2.5483E-06 Note: One successful gmin step
Trying gmin =   1.8434E-06 Note: One successful gmin step
Trying gmin =   1.1342E-06 Warning: Further gmin increment
Trying gmin =   1.6326E-06 Warning: Further gmin increment
Trying gmin =   1.7883E-06 Note: One successful gmin step
Trying gmin =   1.7087E-06 Warning: Further gmin increment
Trying gmin =   1.7681E-06 Note: One successful gmin step
Trying gmin =   1.7381E-06 Note: One successful gmin step
Trying gmin =   1.6942E-06 Warning: Further gmin increment
Trying gmin =   1.7270E-06 Note: One successful gmin step
Trying gmin =   1.7105E-06 Warning: Further gmin increment
Trying gmin =   1.7229E-06 Warning: Further gmin increment
Trying gmin =   1.7260E-06 Note: One successful gmin step
Trying gmin =   1.7244E-06 Note: One successful gmin step
Trying gmin =   1.7221E-06 Note: One successful gmin step
Trying gmin =   1.7186E-06 Note: One successful gmin step
Trying gmin =   1.7134E-06 Note: One successful gmin step
Trying gmin =   1.7056E-06 Note: One successful gmin step
Trying gmin =   1.6940E-06 Note: One successful gmin step
Trying gmin =   1.6767E-06 Note: One successful gmin step
Trying gmin =   1.6511E-06 Note: One successful gmin step
Trying gmin =   1.6134E-06 Note: One successful gmin step
Trying gmin =   1.5585E-06 Note: One successful gmin step
Trying gmin =   1.4797E-06 Note: One successful gmin step
Trying gmin =   1.3688E-06 Note: One successful gmin step
Trying gmin =   1.2179E-06 Note: One successful gmin step
Trying gmin =   1.0221E-06 Note: One successful gmin step
Trying gmin =   7.8584E-07 Note: One successful gmin step
Trying gmin =   5.2977E-07 Note: One successful gmin step
Trying gmin =   2.9324E-07 Note: One successful gmin step
Trying gmin =   1.2076E-07 Note: One successful gmin step
Trying gmin =   3.1913E-08 Note: One successful gmin step
Trying gmin =   4.3354E-09 Note: One successful gmin step
Trying gmin =   4.3354E-10 Note: One successful gmin step
Trying gmin =   4.3354E-11 Note: One successful gmin step
Trying gmin =   4.3354E-12 Note: One successful gmin step
Trying gmin =   1.0000E-12 Note: One successful gmin step
Note: Dynamic gmin stepping completed
 Reference value :  2.80000e+00Note: Starting true gmin stepping
Trying gmin =   1.0000E-03 Note: One successful gmin step
Trying gmin =   1.0000E-04 Note: One successful gmin step
Trying gmin =   1.0000E-05 Note: One successful gmin step
Trying gmin =   1.0000E-06 Note: One successful gmin step
Trying gmin =   1.0000E-07 Note: One successful gmin step
Trying gmin =   1.0000E-08 Warning: Further gmin increment
Trying gmin =   5.6234E-08 Note: One successful gmin step
Trying gmin =   2.3714E-08 Note: One successful gmin step
Trying gmin =   1.0000E-08 Note: One successful gmin step
Trying gmin =   2.7384E-09 Warning: Further gmin increment
Trying gmin =   7.2339E-09 Note: One successful gmin step
Trying gmin =   4.4508E-09 Note: One successful gmin step
Trying gmin =   2.1480E-09 Note: One successful gmin step
Trying gmin =   7.2015E-10 Note: One successful gmin step
Trying gmin =   1.3980E-10 Note: One successful gmin step
Trying gmin =   1.3980E-11 Note: One successful gmin step
Trying gmin =   1.3980E-12 Note: One successful gmin step
Trying gmin =   1.0000E-12 Note: One successful gmin step
Note: True gmin stepping completed
Note: Starting true gmin stepping
Trying gmin =   1.0000E-03 Note: One successful gmin step
Trying gmin =   1.0000E-04 Note: One successful gmin step
Trying gmin =   1.0000E-05 Note: One successful gmin step
Trying gmin =   1.0000E-06 Note: One successful gmin step
Trying gmin =   1.0000E-07 Note: One successful gmin step
Trying gmin =   1.0000E-08 Warning: Further gmin increment
Trying gmin =   5.6234E-08 Note: One successful gmin step
Trying gmin =   2.3714E-08 Note: One successful gmin step
Trying gmin =   1.0000E-08 Note: One successful gmin step
Trying gmin =   2.7384E-09 Note: One successful gmin step
Trying gmin =   3.9242E-10 Note: One successful gmin step
Trying gmin =   3.9242E-11 Note: One successful gmin step
Trying gmin =   3.9242E-12 Note: One successful gmin step
Trying gmin =   1.0000E-12 Note: One successful gmin step
Note: True gmin stepping completed
 Reference value :  1.24000e+00pm                  =  6.557824e+01
Doing analysis at TEMP = 27.000000 and TNOM = 27.000000


No. of Data Rows : 91
psrr100             =  -7.158051e+01
psrr100k            =  -2.642546e+01
Doing analysis at TEMP = 27.000000 and TNOM = 27.000000


No. of Data Rows : 86
temp_coeff = 5.654421e+01
Doing analysis at TEMP = 27.000000 and TNOM = 27.000000


No. of Data Rows : 141
vldo_sup_2          =  1.799554e+00
vldo_sup_2_8        =  1.799300e+00
line_reg = 3.175000e-04
Note: No ".plot", ".print", or ".fourier" lines; no simulations run
vin                 =  1.764104e+00
dropout = 1.040000e-04
