 Reference value :  0.00000e+00
No compatibility mode selected!


Circuit: * ldo netlist 

Doing analysis at TEMP = 85.000000 and TNOM = 27.000000


No. of Data Rows : 1
bg_out = 1.101888e+00
inn = 1.064567e+00
inp = 1.064464e+00
l1#branch = 0.000000e+00
ldo_out = 1.811624e+00
m.xm1.msky130_fd_pr__nfet_g5v0d10v5#body = 2.502211e-11
m.xm1.msky130_fd_pr__nfet_g5v0d10v5#dbody = 4.659367e-11
m.xm1.msky130_fd_pr__nfet_g5v0d10v5#sbody = 2.847266e-11
m.xm2.msky130_fd_pr__pfet_g5v0d10v5#body = 2.100000e+00
m.xm2.msky130_fd_pr__pfet_g5v0d10v5#dbody = 2.100000e+00
m.xm2.msky130_fd_pr__pfet_g5v0d10v5#sbody = 2.100000e+00
m.xm3.msky130_fd_pr__pfet_g5v0d10v5#body = 2.100000e+00
m.xm3.msky130_fd_pr__pfet_g5v0d10v5#dbody = 2.100000e+00
m.xm3.msky130_fd_pr__pfet_g5v0d10v5#sbody = 2.100000e+00
m.xm4.msky130_fd_pr__pfet_g5v0d10v5#body = 2.100000e+00
m.xm4.msky130_fd_pr__pfet_g5v0d10v5#dbody = 2.100000e+00
m.xm4.msky130_fd_pr__pfet_g5v0d10v5#sbody = 2.100000e+00
m.xm5.msky130_fd_pr__pfet_g5v0d10v5#body = 2.100000e+00
m.xm5.msky130_fd_pr__pfet_g5v0d10v5#dbody = 2.100000e+00
m.xm5.msky130_fd_pr__pfet_g5v0d10v5#sbody = 2.100000e+00
m.xm6.msky130_fd_pr__nfet_g5v0d10v5#body = 1.989436e-11
m.xm6.msky130_fd_pr__nfet_g5v0d10v5#dbody = 4.973577e-11
m.xm6.msky130_fd_pr__nfet_g5v0d10v5#sbody = 9.947300e-12
m.xm7.msky130_fd_pr__pfet_g5v0d10v5#body = 2.100000e+00
m.xm7.msky130_fd_pr__pfet_g5v0d10v5#dbody = 2.100000e+00
m.xm7.msky130_fd_pr__pfet_g5v0d10v5#sbody = 2.100000e+00
m.xm8.msky130_fd_pr__pfet_g5v0d10v5#body = 2.100000e+00
m.xm8.msky130_fd_pr__pfet_g5v0d10v5#dbody = 2.100000e+00
m.xm8.msky130_fd_pr__pfet_g5v0d10v5#sbody = 2.100000e+00
m.xm9.msky130_fd_pr__nfet_g5v0d10v5#body = 2.318499e-11
m.xm9.msky130_fd_pr__nfet_g5v0d10v5#dbody = 4.502662e-11
m.xm9.msky130_fd_pr__nfet_g5v0d10v5#sbody = 2.452833e-11
m.xm10.msky130_fd_pr__nfet_g5v0d10v5#body = 2.310815e-11
m.xm10.msky130_fd_pr__nfet_g5v0d10v5#dbody = 4.483453e-11
m.xm10.msky130_fd_pr__nfet_g5v0d10v5#sbody = 2.448991e-11
m.xm11.msky130_fd_pr__pfet_g5v0d10v5#body = 2.100000e+00
m.xm11.msky130_fd_pr__pfet_g5v0d10v5#dbody = 2.100000e+00
m.xm11.msky130_fd_pr__pfet_g5v0d10v5#sbody = 2.100000e+00
m.xm12.msky130_fd_pr__pfet_g5v0d10v5#body = 2.100000e+00
m.xm12.msky130_fd_pr__pfet_g5v0d10v5#dbody = 2.100000e+00
m.xm12.msky130_fd_pr__pfet_g5v0d10v5#sbody = 2.100000e+00
m.xm13.msky130_fd_pr__nfet_g5v0d10v5#body = 4.821938e-12
m.xm13.msky130_fd_pr__nfet_g5v0d10v5#dbody = 1.205478e-11
m.xm13.msky130_fd_pr__nfet_g5v0d10v5#sbody = 2.411038e-12
m.xm14.msky130_fd_pr__pfet_g5v0d10v5#body = 2.100000e+00
m.xm14.msky130_fd_pr__pfet_g5v0d10v5#dbody = 2.100000e+00
m.xm14.msky130_fd_pr__pfet_g5v0d10v5#sbody = 2.100000e+00
m.xm15.msky130_fd_pr__nfet_g5v0d10v5#body = 7.645235e-15
m.xm15.msky130_fd_pr__nfet_g5v0d10v5#dbody = 1.911272e-14
m.xm15.msky130_fd_pr__nfet_g5v0d10v5#sbody = 3.822983e-15
m.xm16.msky130_fd_pr__nfet_g5v0d10v5#body = 5.011156e-11
m.xm16.msky130_fd_pr__nfet_g5v0d10v5#dbody = 8.811025e-11
m.xm16.msky130_fd_pr__nfet_g5v0d10v5#sbody = 6.222443e-11
m.xm17.msky130_fd_pr__pfet_g5v0d10v5#body = 2.100000e+00
m.xm17.msky130_fd_pr__pfet_g5v0d10v5#dbody = 2.100000e+00
m.xm17.msky130_fd_pr__pfet_g5v0d10v5#sbody = 2.100000e+00
m.xm18.msky130_fd_pr__nfet_g5v0d10v5#body = 7.841743e-12
m.xm18.msky130_fd_pr__nfet_g5v0d10v5#dbody = 1.960428e-11
m.xm18.msky130_fd_pr__nfet_g5v0d10v5#sbody = 3.920947e-12
m.xm19.msky130_fd_pr__nfet_g5v0d10v5#body = 2.515107e-11
m.xm19.msky130_fd_pr__nfet_g5v0d10v5#dbody = 4.691607e-11
m.xm19.msky130_fd_pr__nfet_g5v0d10v5#sbody = 2.853714e-11
m.xm20.msky130_fd_pr__nfet_g5v0d10v5#body = 1.357499e-11
m.xm20.msky130_fd_pr__nfet_g5v0d10v5#dbody = 3.393739e-11
m.xm20.msky130_fd_pr__nfet_g5v0d10v5#sbody = 6.787574e-12
m.xm22.msky130_fd_pr__nfet_g5v0d10v5#body = 1.127156e-11
m.xm22.msky130_fd_pr__nfet_g5v0d10v5#dbody = 2.817880e-11
m.xm22.msky130_fd_pr__nfet_g5v0d10v5#sbody = 5.635895e-12
m.xm24.msky130_fd_pr__pfet_g5v0d10v5#body = 2.100000e+00
m.xm24.msky130_fd_pr__pfet_g5v0d10v5#dbody = 2.100000e+00
m.xm24.msky130_fd_pr__pfet_g5v0d10v5#sbody = 2.100000e+00
m.xm26.msky130_fd_pr__pfet_g5v0d10v5#body = 2.100000e+00
m.xm26.msky130_fd_pr__pfet_g5v0d10v5#dbody = 2.100000e+00
m.xm26.msky130_fd_pr__pfet_g5v0d10v5#sbody = 2.100000e+00
mir = 9.411259e-01
net1 = 6.313038e-01
net2 = 1.475812e-05
net3 = 7.051467e-01
net4 = 2.169052e-01
net5 = 9.514429e-01
net6 = 9.057216e-01
net7 = 7.050413e-01
net8 = 1.040862e+00
net9 = 1.047009e+00
net10 = 2.273877e-01
net11 = 4.688021e-01
net12 = 4.688021e-01
net13 = 0.000000e+00
out = 4.688021e-01
pos = 1.101964e+00
q.xq2.qsky130_fd_pr__pnp_05v5_w0p68l0p68#collcx = 3.098524e-03
q.xq3.qsky130_fd_pr__pnp_05v5_w0p68l0p68#collcx = 3.913045e-04
q.xq4.qsky130_fd_pr__pnp_05v5_w0p68l0p68#collcx = 3.913045e-04
q.xq8.qsky130_fd_pr__pnp_05v5_w0p68l0p68#collcx = 3.913045e-04
q.xq10.qsky130_fd_pr__pnp_05v5_w0p68l0p68#collcx = 3.913045e-04
q.xq12.qsky130_fd_pr__pnp_05v5_w0p68l0p68#collcx = 3.913045e-04
q.xq14.qsky130_fd_pr__pnp_05v5_w0p68l0p68#collcx = 3.913045e-04
q.xq16.qsky130_fd_pr__pnp_05v5_w0p68l0p68#collcx = 3.913045e-04
q.xq18.qsky130_fd_pr__pnp_05v5_w0p68l0p68#collcx = 3.913045e-04
vb = 9.274614e-01
vdd = 2.100000e+00
vs#branch = -1.00788e-01
vt#branch = 0.000000e+00
xc1.a = 0.000000e+00
xc1.b1 = 0.000000e+00
xc3.a = 4.688021e-01
xc3.b1 = 4.688021e-01
xr1.xsky130_fd_pr__res_xhigh_po_0p69.ra = 7.082897e-01
xr2.xsky130_fd_pr__res_xhigh_po_0p69.ra = 7.083951e-01
xr3.xsky130_fd_pr__res_xhigh_po_0p69.ra = 1.987334e-03
xr4.xsky130_fd_pr__res_xhigh_po_0p69.ra = 6.326024e-01
xr5.xsky130_fd_pr__res_xhigh_po_0p69.ra = 1.987020e-03
xr6.xsky130_fd_pr__res_xhigh_po_0p69.ra = 3.435878e-03
xr7.xsky130_fd_pr__res_xhigh_po_0p69.ra = 4.688021e-01
xr8.xsky130_fd_pr__res_xhigh_po_0p69.ra = 1.107181e+00
xr9.xsky130_fd_pr__res_xhigh_po_0p69.ra = 5.385646e-03
Doing analysis at TEMP = 85.000000 and TNOM = 27.000000


No. of Data Rows : 91
Error: no such vector PM
 Reference value :  1.24000e+00Note: Starting true gmin stepping
Trying gmin =   1.0000E-03 Note: One successful gmin step
Trying gmin =   1.0000E-04 Note: One successful gmin step
Trying gmin =   1.0000E-05 Note: One successful gmin step
Trying gmin =   1.0000E-06 Note: One successful gmin step
Trying gmin =   1.0000E-07 Note: One successful gmin step
Trying gmin =   1.0000E-08 Note: One successful gmin step
Trying gmin =   3.1623E-09 Warning: Further gmin increment
Trying gmin =   7.4989E-09 Note: One successful gmin step
Trying gmin =   4.8697E-09 Note: One successful gmin step
Trying gmin =   2.5483E-09 Warning: Further gmin increment
Trying gmin =   4.1418E-09 Note: One successful gmin step
Trying gmin =   3.2488E-09 Note: One successful gmin step
Trying gmin =   2.2569E-09 Note: One successful gmin step
Trying gmin =   1.3068E-09 Note: One successful gmin step
Trying gmin =   5.7578E-10 Note: One successful gmin step
Trying gmin =   1.6839E-10 Note: One successful gmin step
Trying gmin =   2.6633E-11 Note: One successful gmin step
Trying gmin =   2.6633E-12 Note: One successful gmin step
Trying gmin =   1.0000E-12 Note: One successful gmin step
Note: True gmin stepping completed
 Reference value :  1.14000e+00Note: Starting true gmin stepping
Trying gmin =   1.0000E-03 Note: One successful gmin step
Trying gmin =   1.0000E-04 Note: One successful gmin step
Trying gmin =   1.0000E-05 Note: One successful gmin step
Trying gmin =   1.0000E-06 Note: One successful gmin step
Trying gmin =   1.0000E-07 Note: One successful gmin step
Trying gmin =   1.0000E-08 Note: One successful gmin step
Trying gmin =   1.0000E-09 Warning: Further gmin increment
Trying gmin =   5.6234E-09 Note: One successful gmin step
Trying gmin =   2.3714E-09 Note: One successful gmin step
Trying gmin =   1.5399E-09 Note: One successful gmin step
Trying gmin =   8.0584E-10 Note: One successful gmin step
Trying gmin =   3.0505E-10 Note: One successful gmin step
Trying gmin =   7.1050E-11 Note: One successful gmin step
Trying gmin =   7.9863E-12 Note: One successful gmin step
Trying gmin =   1.0000E-12 Note: One successful gmin step
Note: True gmin stepping completed

Error: measure  pm  (AT) : out of interval
 meas ac pm find p when vdb(ldo_out)=0 failed!

Doing analysis at TEMP = 85.000000 and TNOM = 27.000000


No. of Data Rows : 91
psrr100             =  -4.553109e+01
psrr100k            =  -1.720745e+01
Doing analysis at TEMP = 85.000000 and TNOM = 27.000000


No. of Data Rows : 86
temp_coeff = 5.697145e+01
Doing analysis at TEMP = 85.000000 and TNOM = 27.000000


No. of Data Rows : 141
vldo_sup_2          =  1.809458e+00
vldo_sup_2_8        =  1.813320e+00
line_reg = 4.827500e-03
Note: No ".plot", ".print", or ".fourier" lines; no simulations run
vin                 =  1.948152e+00
dropout = 1.841520e-01
