 Reference value :  0.00000e+00
No compatibility mode selected!


Circuit: * ldo netlist 

Doing analysis at TEMP = 85.000000 and TNOM = 27.000000


No. of Data Rows : 1
bg_out = 1.096646e+00
inn = 1.058426e+00
inp = 1.058374e+00
l1#branch = 0.000000e+00
ldo_out = 1.802376e+00
m.xm1.msky130_fd_pr__nfet_g5v0d10v5#body = 3.024009e-11
m.xm1.msky130_fd_pr__nfet_g5v0d10v5#dbody = 5.960175e-11
m.xm1.msky130_fd_pr__nfet_g5v0d10v5#sbody = 3.111853e-11
m.xm2.msky130_fd_pr__pfet_g5v0d10v5#body = 2.500000e+00
m.xm2.msky130_fd_pr__pfet_g5v0d10v5#dbody = 2.500000e+00
m.xm2.msky130_fd_pr__pfet_g5v0d10v5#sbody = 2.500000e+00
m.xm3.msky130_fd_pr__pfet_g5v0d10v5#body = 2.500000e+00
m.xm3.msky130_fd_pr__pfet_g5v0d10v5#dbody = 2.500000e+00
m.xm3.msky130_fd_pr__pfet_g5v0d10v5#sbody = 2.500000e+00
m.xm4.msky130_fd_pr__pfet_g5v0d10v5#body = 2.500000e+00
m.xm4.msky130_fd_pr__pfet_g5v0d10v5#dbody = 2.500000e+00
m.xm4.msky130_fd_pr__pfet_g5v0d10v5#sbody = 2.500000e+00
m.xm5.msky130_fd_pr__pfet_g5v0d10v5#body = 2.500000e+00
m.xm5.msky130_fd_pr__pfet_g5v0d10v5#dbody = 2.500000e+00
m.xm5.msky130_fd_pr__pfet_g5v0d10v5#sbody = 2.500000e+00
m.xm6.msky130_fd_pr__nfet_g5v0d10v5#body = 1.977045e-11
m.xm6.msky130_fd_pr__nfet_g5v0d10v5#dbody = 4.942602e-11
m.xm6.msky130_fd_pr__nfet_g5v0d10v5#sbody = 9.885337e-12
m.xm7.msky130_fd_pr__pfet_g5v0d10v5#body = 2.500000e+00
m.xm7.msky130_fd_pr__pfet_g5v0d10v5#dbody = 2.500000e+00
m.xm7.msky130_fd_pr__pfet_g5v0d10v5#sbody = 2.500000e+00
m.xm8.msky130_fd_pr__pfet_g5v0d10v5#body = 2.500000e+00
m.xm8.msky130_fd_pr__pfet_g5v0d10v5#dbody = 2.500000e+00
m.xm8.msky130_fd_pr__pfet_g5v0d10v5#sbody = 2.500000e+00
m.xm9.msky130_fd_pr__nfet_g5v0d10v5#body = 2.832207e-11
m.xm9.msky130_fd_pr__nfet_g5v0d10v5#dbody = 5.781081e-11
m.xm9.msky130_fd_pr__nfet_g5v0d10v5#sbody = 2.715535e-11
m.xm10.msky130_fd_pr__nfet_g5v0d10v5#body = 2.814879e-11
m.xm10.msky130_fd_pr__nfet_g5v0d10v5#dbody = 5.737762e-11
m.xm10.msky130_fd_pr__nfet_g5v0d10v5#sbody = 2.706871e-11
m.xm11.msky130_fd_pr__pfet_g5v0d10v5#body = 2.500000e+00
m.xm11.msky130_fd_pr__pfet_g5v0d10v5#dbody = 2.500000e+00
m.xm11.msky130_fd_pr__pfet_g5v0d10v5#sbody = 2.500000e+00
m.xm12.msky130_fd_pr__pfet_g5v0d10v5#body = 2.500000e+00
m.xm12.msky130_fd_pr__pfet_g5v0d10v5#dbody = 2.500000e+00
m.xm12.msky130_fd_pr__pfet_g5v0d10v5#sbody = 2.500000e+00
m.xm13.msky130_fd_pr__nfet_g5v0d10v5#body = 4.851053e-12
m.xm13.msky130_fd_pr__nfet_g5v0d10v5#dbody = 1.212757e-11
m.xm13.msky130_fd_pr__nfet_g5v0d10v5#sbody = 2.425590e-12
m.xm14.msky130_fd_pr__pfet_g5v0d10v5#body = 2.500000e+00
m.xm14.msky130_fd_pr__pfet_g5v0d10v5#dbody = 2.500000e+00
m.xm14.msky130_fd_pr__pfet_g5v0d10v5#sbody = 2.500000e+00
m.xm15.msky130_fd_pr__nfet_g5v0d10v5#body = 6.432326e-14
m.xm15.msky130_fd_pr__nfet_g5v0d10v5#dbody = 1.608051e-13
m.xm15.msky130_fd_pr__nfet_g5v0d10v5#sbody = 3.216467e-14
m.xm16.msky130_fd_pr__nfet_g5v0d10v5#body = 5.503480e-11
m.xm16.msky130_fd_pr__nfet_g5v0d10v5#dbody = 1.005719e-10
m.xm16.msky130_fd_pr__nfet_g5v0d10v5#sbody = 6.453252e-11
m.xm17.msky130_fd_pr__pfet_g5v0d10v5#body = 2.500000e+00
m.xm17.msky130_fd_pr__pfet_g5v0d10v5#dbody = 2.500000e+00
m.xm17.msky130_fd_pr__pfet_g5v0d10v5#sbody = 2.500000e+00
m.xm18.msky130_fd_pr__nfet_g5v0d10v5#body = 1.539468e-11
m.xm18.msky130_fd_pr__nfet_g5v0d10v5#dbody = 3.848662e-11
m.xm18.msky130_fd_pr__nfet_g5v0d10v5#sbody = 7.697415e-12
m.xm19.msky130_fd_pr__nfet_g5v0d10v5#body = 3.032389e-11
m.xm19.msky130_fd_pr__nfet_g5v0d10v5#dbody = 5.981125e-11
m.xm19.msky130_fd_pr__nfet_g5v0d10v5#sbody = 3.116043e-11
m.xm20.msky130_fd_pr__nfet_g5v0d10v5#body = 1.344652e-11
m.xm20.msky130_fd_pr__nfet_g5v0d10v5#dbody = 3.361622e-11
m.xm20.msky130_fd_pr__nfet_g5v0d10v5#sbody = 6.723333e-12
m.xm22.msky130_fd_pr__nfet_g5v0d10v5#body = 1.129020e-11
m.xm22.msky130_fd_pr__nfet_g5v0d10v5#dbody = 2.822540e-11
m.xm22.msky130_fd_pr__nfet_g5v0d10v5#sbody = 5.645205e-12
m.xm24.msky130_fd_pr__pfet_g5v0d10v5#body = 2.500000e+00
m.xm24.msky130_fd_pr__pfet_g5v0d10v5#dbody = 2.500000e+00
m.xm24.msky130_fd_pr__pfet_g5v0d10v5#sbody = 2.500000e+00
m.xm26.msky130_fd_pr__pfet_g5v0d10v5#body = 2.500000e+00
m.xm26.msky130_fd_pr__pfet_g5v0d10v5#dbody = 2.500000e+00
m.xm26.msky130_fd_pr__pfet_g5v0d10v5#sbody = 2.500000e+00
mir = 1.357089e+00
net1 = 6.283688e-01
net2 = 1.243674e-04
net3 = 7.016454e-01
net4 = 2.183537e-01
net5 = 1.363793e+00
net6 = 8.958095e-01
net7 = 7.015926e-01
net8 = 1.441773e+00
net9 = 1.455634e+00
net10 = 2.297056e-01
net11 = 1.073037e+00
net12 = 1.073037e+00
net13 = 0.000000e+00
out = 1.073037e+00
pos = 1.096788e+00
q.xq2.qsky130_fd_pr__pnp_05v5_w0p68l0p68#collcx = 2.838301e-03
q.xq3.qsky130_fd_pr__pnp_05v5_w0p68l0p68#collcx = 3.580802e-04
q.xq4.qsky130_fd_pr__pnp_05v5_w0p68l0p68#collcx = 3.580802e-04
q.xq8.qsky130_fd_pr__pnp_05v5_w0p68l0p68#collcx = 3.580802e-04
q.xq10.qsky130_fd_pr__pnp_05v5_w0p68l0p68#collcx = 3.580802e-04
q.xq12.qsky130_fd_pr__pnp_05v5_w0p68l0p68#collcx = 3.580802e-04
q.xq14.qsky130_fd_pr__pnp_05v5_w0p68l0p68#collcx = 3.580802e-04
q.xq16.qsky130_fd_pr__pnp_05v5_w0p68l0p68#collcx = 3.580802e-04
q.xq18.qsky130_fd_pr__pnp_05v5_w0p68l0p68#collcx = 3.580802e-04
vb = 9.171840e-01
vdd = 2.500000e+00
vs#branch = -1.00265e-01
vt#branch = 0.000000e+00
xc1.a = 0.000000e+00
xc1.b1 = 0.000000e+00
xc3.a = 1.073037e+00
xc3.b1 = 1.073037e+00
xr1.xsky130_fd_pr__res_xhigh_po_0p69.ra = 7.100155e-01
xr2.xsky130_fd_pr__res_xhigh_po_0p69.ra = 7.100682e-01
xr3.xsky130_fd_pr__res_xhigh_po_0p69.ra = 5.152571e-03
xr4.xsky130_fd_pr__res_xhigh_po_0p69.ra = 6.317358e-01
xr5.xsky130_fd_pr__res_xhigh_po_0p69.ra = 5.152162e-03
xr6.xsky130_fd_pr__res_xhigh_po_0p69.ra = 8.908480e-03
xr7.xsky130_fd_pr__res_xhigh_po_0p69.ra = 1.073037e+00
xr8.xsky130_fd_pr__res_xhigh_po_0p69.ra = 1.110325e+00
xr9.xsky130_fd_pr__res_xhigh_po_0p69.ra = 1.397387e-02
Doing analysis at TEMP = 85.000000 and TNOM = 27.000000


No. of Data Rows : 91
Error: no such vector PM
 Reference value :  2.66000e+00Note: Starting true gmin stepping
Trying gmin =   1.0000E-03 Note: One successful gmin step
Trying gmin =   1.0000E-04 Note: One successful gmin step
Trying gmin =   1.0000E-05 Note: One successful gmin step
Trying gmin =   1.0000E-06 Note: One successful gmin step
Trying gmin =   1.0000E-07 Note: One successful gmin step
Trying gmin =   1.0000E-08 Note: One successful gmin step
Trying gmin =   1.0000E-09 Warning: Further gmin increment
Trying gmin =   5.6234E-09 Note: One successful gmin step
Trying gmin =   3.1623E-09 Note: One successful gmin step
Trying gmin =   2.3714E-09 Note: One successful gmin step
Trying gmin =   1.5399E-09 Note: One successful gmin step
Trying gmin =   8.0584E-10 Note: One successful gmin step
Trying gmin =   3.0505E-10 Note: One successful gmin step
Trying gmin =   7.1050E-11 Note: One successful gmin step
Trying gmin =   7.9863E-12 Note: One successful gmin step
Trying gmin =   1.0000E-12 Note: One successful gmin step
Note: True gmin stepping completed
 Reference value :  1.12000e+00
Error: measure  pm  (AT) : out of interval
 meas ac pm find p when vdb(ldo_out)=0 failed!

Doing analysis at TEMP = 85.000000 and TNOM = 27.000000


No. of Data Rows : 91
psrr100             =  -5.468504e+01
psrr100k            =  -2.344384e+01
Doing analysis at TEMP = 85.000000 and TNOM = 27.000000


No. of Data Rows : 86
temp_coeff = 2.653422e+01
Doing analysis at TEMP = 85.000000 and TNOM = 27.000000


No. of Data Rows : 141
vldo_sup_2          =  1.800077e+00
vldo_sup_2_8        =  1.802849e+00
line_reg = 3.465000e-03
Note: No ".plot", ".print", or ".fourier" lines; no simulations run
vin                 =  1.948149e+00
dropout = 1.841490e-01
