 Reference value :  0.00000e+00
No compatibility mode selected!


Circuit: * ldo netlist 

Doing analysis at TEMP = 85.000000 and TNOM = 27.000000


No. of Data Rows : 1
bg_out = 1.098746e+00
inn = 1.061227e+00
inp = 1.061102e+00
l1#branch = 0.000000e+00
ldo_out = 1.806414e+00
m.xm1.msky130_fd_pr__nfet_g5v0d10v5#body = 2.825081e-11
m.xm1.msky130_fd_pr__nfet_g5v0d10v5#dbody = 5.577004e-11
m.xm1.msky130_fd_pr__nfet_g5v0d10v5#sbody = 2.898239e-11
m.xm2.msky130_fd_pr__pfet_g5v0d10v5#body = 2.300000e+00
m.xm2.msky130_fd_pr__pfet_g5v0d10v5#dbody = 2.300000e+00
m.xm2.msky130_fd_pr__pfet_g5v0d10v5#sbody = 2.300000e+00
m.xm3.msky130_fd_pr__pfet_g5v0d10v5#body = 2.300000e+00
m.xm3.msky130_fd_pr__pfet_g5v0d10v5#dbody = 2.300000e+00
m.xm3.msky130_fd_pr__pfet_g5v0d10v5#sbody = 2.300000e+00
m.xm4.msky130_fd_pr__pfet_g5v0d10v5#body = 2.300000e+00
m.xm4.msky130_fd_pr__pfet_g5v0d10v5#dbody = 2.300000e+00
m.xm4.msky130_fd_pr__pfet_g5v0d10v5#sbody = 2.300000e+00
m.xm5.msky130_fd_pr__pfet_g5v0d10v5#body = 2.300000e+00
m.xm5.msky130_fd_pr__pfet_g5v0d10v5#dbody = 2.300000e+00
m.xm5.msky130_fd_pr__pfet_g5v0d10v5#sbody = 2.300000e+00
m.xm6.msky130_fd_pr__nfet_g5v0d10v5#body = 2.053370e-11
m.xm6.msky130_fd_pr__nfet_g5v0d10v5#dbody = 5.133414e-11
m.xm6.msky130_fd_pr__nfet_g5v0d10v5#sbody = 1.026697e-11
m.xm7.msky130_fd_pr__pfet_g5v0d10v5#body = 2.300000e+00
m.xm7.msky130_fd_pr__pfet_g5v0d10v5#dbody = 2.300000e+00
m.xm7.msky130_fd_pr__pfet_g5v0d10v5#sbody = 2.300000e+00
m.xm8.msky130_fd_pr__pfet_g5v0d10v5#body = 2.300000e+00
m.xm8.msky130_fd_pr__pfet_g5v0d10v5#dbody = 2.300000e+00
m.xm8.msky130_fd_pr__pfet_g5v0d10v5#sbody = 2.300000e+00
m.xm9.msky130_fd_pr__nfet_g5v0d10v5#body = 2.642933e-11
m.xm9.msky130_fd_pr__nfet_g5v0d10v5#dbody = 5.427272e-11
m.xm9.msky130_fd_pr__nfet_g5v0d10v5#sbody = 2.501525e-11
m.xm10.msky130_fd_pr__nfet_g5v0d10v5#body = 2.610738e-11
m.xm10.msky130_fd_pr__nfet_g5v0d10v5#dbody = 5.346786e-11
m.xm10.msky130_fd_pr__nfet_g5v0d10v5#sbody = 2.485428e-11
m.xm11.msky130_fd_pr__pfet_g5v0d10v5#body = 2.300000e+00
m.xm11.msky130_fd_pr__pfet_g5v0d10v5#dbody = 2.300000e+00
m.xm11.msky130_fd_pr__pfet_g5v0d10v5#sbody = 2.300000e+00
m.xm12.msky130_fd_pr__pfet_g5v0d10v5#body = 2.300000e+00
m.xm12.msky130_fd_pr__pfet_g5v0d10v5#dbody = 2.300000e+00
m.xm12.msky130_fd_pr__pfet_g5v0d10v5#sbody = 2.300000e+00
m.xm13.msky130_fd_pr__nfet_g5v0d10v5#body = 4.259882e-12
m.xm13.msky130_fd_pr__nfet_g5v0d10v5#dbody = 1.064964e-11
m.xm13.msky130_fd_pr__nfet_g5v0d10v5#sbody = 2.130003e-12
m.xm14.msky130_fd_pr__pfet_g5v0d10v5#body = 2.300000e+00
m.xm14.msky130_fd_pr__pfet_g5v0d10v5#dbody = 2.300000e+00
m.xm14.msky130_fd_pr__pfet_g5v0d10v5#sbody = 2.300000e+00
m.xm15.msky130_fd_pr__nfet_g5v0d10v5#body = 8.298962e-14
m.xm15.msky130_fd_pr__nfet_g5v0d10v5#dbody = 2.074717e-13
m.xm15.msky130_fd_pr__nfet_g5v0d10v5#sbody = 4.149713e-14
m.xm16.msky130_fd_pr__nfet_g5v0d10v5#body = 5.264390e-11
m.xm16.msky130_fd_pr__nfet_g5v0d10v5#dbody = 9.445051e-11
m.xm16.msky130_fd_pr__nfet_g5v0d10v5#sbody = 6.348119e-11
m.xm17.msky130_fd_pr__pfet_g5v0d10v5#body = 2.300000e+00
m.xm17.msky130_fd_pr__pfet_g5v0d10v5#dbody = 2.300000e+00
m.xm17.msky130_fd_pr__pfet_g5v0d10v5#sbody = 2.300000e+00
m.xm18.msky130_fd_pr__nfet_g5v0d10v5#body = 1.962018e-11
m.xm18.msky130_fd_pr__nfet_g5v0d10v5#dbody = 4.904924e-11
m.xm18.msky130_fd_pr__nfet_g5v0d10v5#sbody = 9.810169e-12
m.xm19.msky130_fd_pr__nfet_g5v0d10v5#body = 2.844182e-11
m.xm19.msky130_fd_pr__nfet_g5v0d10v5#dbody = 5.624758e-11
m.xm19.msky130_fd_pr__nfet_g5v0d10v5#sbody = 2.907789e-11
m.xm20.msky130_fd_pr__nfet_g5v0d10v5#body = 1.459497e-11
m.xm20.msky130_fd_pr__nfet_g5v0d10v5#dbody = 3.648733e-11
m.xm20.msky130_fd_pr__nfet_g5v0d10v5#sbody = 7.297561e-12
m.xm22.msky130_fd_pr__nfet_g5v0d10v5#body = 1.070517e-11
m.xm22.msky130_fd_pr__nfet_g5v0d10v5#dbody = 2.676283e-11
m.xm22.msky130_fd_pr__nfet_g5v0d10v5#sbody = 5.352689e-12
m.xm24.msky130_fd_pr__pfet_g5v0d10v5#body = 2.300000e+00
m.xm24.msky130_fd_pr__pfet_g5v0d10v5#dbody = 2.300000e+00
m.xm24.msky130_fd_pr__pfet_g5v0d10v5#sbody = 2.300000e+00
m.xm26.msky130_fd_pr__pfet_g5v0d10v5#body = 2.300000e+00
m.xm26.msky130_fd_pr__pfet_g5v0d10v5#dbody = 2.300000e+00
m.xm26.msky130_fd_pr__pfet_g5v0d10v5#sbody = 2.300000e+00
mir = 1.240643e+00
net1 = 6.297765e-01
net2 = 1.601982e-04
net3 = 7.033156e-01
net4 = 1.715765e-01
net5 = 1.255924e+00
net6 = 9.539057e-01
net7 = 7.031879e-01
net8 = 1.323246e+00
net9 = 1.349002e+00
net10 = 1.800090e-01
net11 = 1.408068e+00
net12 = 1.408068e+00
net13 = 0.000000e+00
out = 1.408068e+00
pos = 1.099029e+00
q.xq2.qsky130_fd_pr__pnp_05v5_w0p68l0p68#collcx = 2.960075e-03
q.xq3.qsky130_fd_pr__pnp_05v5_w0p68l0p68#collcx = 3.736612e-04
q.xq4.qsky130_fd_pr__pnp_05v5_w0p68l0p68#collcx = 3.736612e-04
q.xq8.qsky130_fd_pr__pnp_05v5_w0p68l0p68#collcx = 3.736612e-04
q.xq10.qsky130_fd_pr__pnp_05v5_w0p68l0p68#collcx = 3.736612e-04
q.xq12.qsky130_fd_pr__pnp_05v5_w0p68l0p68#collcx = 3.736612e-04
q.xq14.qsky130_fd_pr__pnp_05v5_w0p68l0p68#collcx = 3.736612e-04
q.xq16.qsky130_fd_pr__pnp_05v5_w0p68l0p68#collcx = 3.736612e-04
q.xq18.qsky130_fd_pr__pnp_05v5_w0p68l0p68#collcx = 3.736612e-04
vb = 1.006096e+00
vdd = 2.300000e+00
vs#branch = -1.01722e-02
vt#branch = 0.000000e+00
xc1.a = 0.000000e+00
xc1.b1 = 0.000000e+00
xc3.a = 1.408068e+00
xc3.b1 = 1.408068e+00
xr1.xsky130_fd_pr__res_xhigh_po_0p69.ra = 7.091361e-01
xr2.xsky130_fd_pr__res_xhigh_po_0p69.ra = 7.092638e-01
xr3.xsky130_fd_pr__res_xhigh_po_0p69.ra = 3.640225e-03
xr4.xsky130_fd_pr__res_xhigh_po_0p69.ra = 6.321534e-01
xr5.xsky130_fd_pr__res_xhigh_po_0p69.ra = 3.639526e-03
xr6.xsky130_fd_pr__res_xhigh_po_0p69.ra = 6.291151e-03
xr7.xsky130_fd_pr__res_xhigh_po_0p69.ra = 1.408068e+00
xr8.xsky130_fd_pr__res_xhigh_po_0p69.ra = 1.108587e+00
xr9.xsky130_fd_pr__res_xhigh_po_0p69.ra = 9.866584e-03
Doing analysis at TEMP = 85.000000 and TNOM = 27.000000


No. of Data Rows : 91
Error: no such vector PM
 Reference value :  2.30000e+01 Reference value :  2.80000e+00Note: Starting true gmin stepping
Trying gmin =   1.0000E-03 Note: One successful gmin step
Trying gmin =   1.0000E-04 Note: One successful gmin step
Trying gmin =   1.0000E-05 Note: One successful gmin step
Trying gmin =   1.0000E-06 Note: One successful gmin step
Trying gmin =   1.0000E-07 Note: One successful gmin step
Trying gmin =   1.0000E-08 Note: One successful gmin step
Trying gmin =   1.0000E-09 Note: One successful gmin step
Trying gmin =   1.0000E-10 Warning: Further gmin increment
Trying gmin =   5.6234E-10 Note: One successful gmin step
Trying gmin =   2.3714E-10 Note: One successful gmin step
Trying gmin =   6.4938E-11 Warning: Further gmin increment
Trying gmin =   1.7154E-10 Note: One successful gmin step
Trying gmin =   1.0554E-10 Note: One successful gmin step
Trying gmin =   5.0937E-11 Note: One successful gmin step
Trying gmin =   1.7077E-11 Note: One successful gmin step
Trying gmin =   3.3152E-12 Note: One successful gmin step
Trying gmin =   1.0000E-12 Note: One successful gmin step
Note: True gmin stepping completed
 Reference value :  1.02000e+00Note: Starting true gmin stepping
Trying gmin =   1.0000E-03 Note: One successful gmin step
Trying gmin =   1.0000E-04 Note: One successful gmin step
Trying gmin =   1.0000E-05 Note: One successful gmin step
Trying gmin =   1.0000E-06 Note: One successful gmin step
Trying gmin =   1.0000E-07 Note: One successful gmin step
Trying gmin =   1.0000E-08 Note: One successful gmin step
Trying gmin =   1.0000E-09 Note: One successful gmin step
Trying gmin =   1.0000E-10 Warning: Further gmin increment
Trying gmin =   5.6234E-10 Note: One successful gmin step
Trying gmin =   2.3714E-10 Note: One successful gmin step
Trying gmin =   6.4938E-11 Warning: Further gmin increment
Trying gmin =   1.7154E-10 Note: One successful gmin step
Trying gmin =   1.0554E-10 Warning: Further gmin increment
Trying gmin =   1.5193E-10 Note: One successful gmin step
Trying gmin =   1.2663E-10 Note: One successful gmin step
Trying gmin =   9.6358E-11 Note: One successful gmin step
Trying gmin =   6.3960E-11 Note: One successful gmin step
Trying gmin =   3.4589E-11 Note: One successful gmin step
Trying gmin =   1.3756E-11 Note: One successful gmin step
Trying gmin =   3.4499E-12 Note: One successful gmin step
Trying gmin =   1.0000E-12 Note: One successful gmin step
Note: True gmin stepping completed
 Reference value :  1.00000e+00
Error: measure  pm  (AT) : out of interval
 meas ac pm find p when vdb(ldo_out)=0 failed!

Doing analysis at TEMP = 85.000000 and TNOM = 27.000000


No. of Data Rows : 91
psrr100             =  -5.155636e+01
psrr100k            =  -2.496332e+01
Doing analysis at TEMP = 85.000000 and TNOM = 27.000000


No. of Data Rows : 86
temp_coeff = 3.538517e+01
Doing analysis at TEMP = 85.000000 and TNOM = 27.000000


No. of Data Rows : 141
vldo_sup_2          =  2.188490e+00
vldo_sup_2_8        =  2.931236e+00
line_reg = 9.284325e-01
Note: No ".plot", ".print", or ".fourier" lines; no simulations run
vin                 =  1.499471e+00
dropout = -2.64529e-01
