 Reference value :  0.00000e+00
No compatibility mode selected!


Circuit: * ldo netlist 

Doing analysis at TEMP = 27.000000 and TNOM = 27.000000


No. of Data Rows : 1
bg_out = 1.094420e+00
inn = 1.137068e+00
inp = 1.137040e+00
l1#branch = 0.000000e+00
ldo_out = 1.799421e+00
m.xm1.msky130_fd_pr__nfet_g5v0d10v5#body = 1.747086e-11
m.xm1.msky130_fd_pr__nfet_g5v0d10v5#dbody = 3.722645e-11
m.xm1.msky130_fd_pr__nfet_g5v0d10v5#sbody = 1.518612e-11
m.xm2.msky130_fd_pr__pfet_g5v0d10v5#body = 2.300000e+00
m.xm2.msky130_fd_pr__pfet_g5v0d10v5#dbody = 2.300000e+00
m.xm2.msky130_fd_pr__pfet_g5v0d10v5#sbody = 2.300000e+00
m.xm3.msky130_fd_pr__pfet_g5v0d10v5#body = 2.300000e+00
m.xm3.msky130_fd_pr__pfet_g5v0d10v5#dbody = 2.300000e+00
m.xm3.msky130_fd_pr__pfet_g5v0d10v5#sbody = 2.300000e+00
m.xm4.msky130_fd_pr__pfet_g5v0d10v5#body = 2.300000e+00
m.xm4.msky130_fd_pr__pfet_g5v0d10v5#dbody = 2.300000e+00
m.xm4.msky130_fd_pr__pfet_g5v0d10v5#sbody = 2.300000e+00
m.xm5.msky130_fd_pr__pfet_g5v0d10v5#body = 2.300000e+00
m.xm5.msky130_fd_pr__pfet_g5v0d10v5#dbody = 2.300000e+00
m.xm5.msky130_fd_pr__pfet_g5v0d10v5#sbody = 2.300000e+00
m.xm6.msky130_fd_pr__nfet_g5v0d10v5#body = 1.137253e-11
m.xm6.msky130_fd_pr__nfet_g5v0d10v5#dbody = 2.843131e-11
m.xm6.msky130_fd_pr__nfet_g5v0d10v5#sbody = 5.686268e-12
m.xm7.msky130_fd_pr__pfet_g5v0d10v5#body = 2.300000e+00
m.xm7.msky130_fd_pr__pfet_g5v0d10v5#dbody = 2.300000e+00
m.xm7.msky130_fd_pr__pfet_g5v0d10v5#sbody = 2.300000e+00
m.xm8.msky130_fd_pr__pfet_g5v0d10v5#body = 2.300000e+00
m.xm8.msky130_fd_pr__pfet_g5v0d10v5#dbody = 2.300000e+00
m.xm8.msky130_fd_pr__pfet_g5v0d10v5#sbody = 2.300000e+00
m.xm9.msky130_fd_pr__nfet_g5v0d10v5#body = 1.808623e-11
m.xm9.msky130_fd_pr__nfet_g5v0d10v5#dbody = 3.983808e-11
m.xm9.msky130_fd_pr__nfet_g5v0d10v5#sbody = 1.442060e-11
m.xm10.msky130_fd_pr__nfet_g5v0d10v5#body = 1.782377e-11
m.xm10.msky130_fd_pr__nfet_g5v0d10v5#dbody = 3.918193e-11
m.xm10.msky130_fd_pr__nfet_g5v0d10v5#sbody = 1.428937e-11
m.xm11.msky130_fd_pr__pfet_g5v0d10v5#body = 2.300000e+00
m.xm11.msky130_fd_pr__pfet_g5v0d10v5#dbody = 2.300000e+00
m.xm11.msky130_fd_pr__pfet_g5v0d10v5#sbody = 2.300000e+00
m.xm12.msky130_fd_pr__pfet_g5v0d10v5#body = 2.300000e+00
m.xm12.msky130_fd_pr__pfet_g5v0d10v5#dbody = 2.300000e+00
m.xm12.msky130_fd_pr__pfet_g5v0d10v5#sbody = 2.300000e+00
m.xm13.msky130_fd_pr__nfet_g5v0d10v5#body = 2.687386e-12
m.xm13.msky130_fd_pr__nfet_g5v0d10v5#dbody = 6.718454e-12
m.xm13.msky130_fd_pr__nfet_g5v0d10v5#sbody = 1.343704e-12
m.xm14.msky130_fd_pr__pfet_g5v0d10v5#body = 2.300000e+00
m.xm14.msky130_fd_pr__pfet_g5v0d10v5#dbody = 2.300000e+00
m.xm14.msky130_fd_pr__pfet_g5v0d10v5#sbody = 2.300000e+00
m.xm15.msky130_fd_pr__nfet_g5v0d10v5#body = 5.658199e-16
m.xm15.msky130_fd_pr__nfet_g5v0d10v5#dbody = 1.414510e-15
m.xm15.msky130_fd_pr__nfet_g5v0d10v5#sbody = 2.829492e-16
m.xm16.msky130_fd_pr__nfet_g5v0d10v5#body = 4.297200e-11
m.xm16.msky130_fd_pr__nfet_g5v0d10v5#dbody = 7.899465e-11
m.xm16.msky130_fd_pr__nfet_g5v0d10v5#sbody = 4.992134e-11
m.xm17.msky130_fd_pr__pfet_g5v0d10v5#body = 2.300000e+00
m.xm17.msky130_fd_pr__pfet_g5v0d10v5#dbody = 2.300000e+00
m.xm17.msky130_fd_pr__pfet_g5v0d10v5#sbody = 2.300000e+00
m.xm18.msky130_fd_pr__nfet_g5v0d10v5#body = 1.989753e-11
m.xm18.msky130_fd_pr__nfet_g5v0d10v5#dbody = 4.962930e-11
m.xm18.msky130_fd_pr__nfet_g5v0d10v5#sbody = 9.948778e-12
m.xm19.msky130_fd_pr__nfet_g5v0d10v5#body = 1.751495e-11
m.xm19.msky130_fd_pr__nfet_g5v0d10v5#dbody = 3.733668e-11
m.xm19.msky130_fd_pr__nfet_g5v0d10v5#sbody = 1.520817e-11
m.xm20.msky130_fd_pr__nfet_g5v0d10v5#body = 1.139482e-11
m.xm20.msky130_fd_pr__nfet_g5v0d10v5#dbody = 2.848704e-11
m.xm20.msky130_fd_pr__nfet_g5v0d10v5#sbody = 5.697424e-12
m.xm22.msky130_fd_pr__nfet_g5v0d10v5#body = 3.228059e-12
m.xm22.msky130_fd_pr__nfet_g5v0d10v5#dbody = 8.070143e-12
m.xm22.msky130_fd_pr__nfet_g5v0d10v5#sbody = 1.614035e-12
m.xm24.msky130_fd_pr__pfet_g5v0d10v5#body = 2.300000e+00
m.xm24.msky130_fd_pr__pfet_g5v0d10v5#dbody = 2.300000e+00
m.xm24.msky130_fd_pr__pfet_g5v0d10v5#sbody = 2.300000e+00
m.xm26.msky130_fd_pr__pfet_g5v0d10v5#body = 2.300000e+00
m.xm26.msky130_fd_pr__pfet_g5v0d10v5#dbody = 2.300000e+00
m.xm26.msky130_fd_pr__pfet_g5v0d10v5#sbody = 2.300000e+00
mir = 1.139295e+00
net1 = 7.215490e-01
net2 = 4.353901e-05
net3 = 7.815375e-01
net4 = 2.576817e-01
net5 = 1.142822e+00
net6 = 9.092389e-01
net7 = 7.815093e-01
net8 = 1.210565e+00
net9 = 1.231562e+00
net10 = 2.148621e-01
net11 = 1.587093e+00
net12 = 1.587093e+00
net13 = 0.000000e+00
out = 1.587093e+00
pos = 1.094623e+00
q.xq2.qsky130_fd_pr__pnp_05v5_w0p68l0p68#collcx = 2.338679e-03
q.xq3.qsky130_fd_pr__pnp_05v5_w0p68l0p68#collcx = 2.939380e-04
q.xq4.qsky130_fd_pr__pnp_05v5_w0p68l0p68#collcx = 2.939380e-04
q.xq8.qsky130_fd_pr__pnp_05v5_w0p68l0p68#collcx = 2.939380e-04
q.xq10.qsky130_fd_pr__pnp_05v5_w0p68l0p68#collcx = 2.939380e-04
q.xq12.qsky130_fd_pr__pnp_05v5_w0p68l0p68#collcx = 2.939380e-04
q.xq14.qsky130_fd_pr__pnp_05v5_w0p68l0p68#collcx = 2.939380e-04
q.xq16.qsky130_fd_pr__pnp_05v5_w0p68l0p68#collcx = 2.939380e-04
q.xq18.qsky130_fd_pr__pnp_05v5_w0p68l0p68#collcx = 2.939380e-04
vb = 9.114567e-01
vdd = 2.300000e+00
vs#branch = -1.83500e-04
vt#branch = 0.000000e+00
xc1.a = 0.000000e+00
xc1.b1 = 0.000000e+00
xc3.a = 1.587093e+00
xc3.b1 = 1.587093e+00
xr1.xsky130_fd_pr__res_xhigh_po_0p69.ra = 7.844791e-01
xr2.xsky130_fd_pr__res_xhigh_po_0p69.ra = 7.845073e-01
xr3.xsky130_fd_pr__res_xhigh_po_0p69.ra = 2.048274e-03
xr4.xsky130_fd_pr__res_xhigh_po_0p69.ra = 7.225258e-01
xr5.xsky130_fd_pr__res_xhigh_po_0p69.ra = 2.048195e-03
xr6.xsky130_fd_pr__res_xhigh_po_0p69.ra = 3.151542e-03
xr7.xsky130_fd_pr__res_xhigh_po_0p69.ra = 1.587093e+00
xr8.xsky130_fd_pr__res_xhigh_po_0p69.ra = 1.099410e+00
xr9.xsky130_fd_pr__res_xhigh_po_0p69.ra = 4.941248e-03
Doing analysis at TEMP = 27.000000 and TNOM = 27.000000


No. of Data Rows : 91
Note: Starting true gmin stepping
Trying gmin =   1.0000E-03 Note: One successful gmin step
Trying gmin =   1.0000E-04 Note: One successful gmin step
Trying gmin =   1.0000E-05 Note: One successful gmin step
Trying gmin =   1.0000E-06 Note: One successful gmin step
Trying gmin =   1.0000E-07 Note: One successful gmin step
Trying gmin =   1.0000E-08 Warning: Further gmin increment
Trying gmin =   5.6234E-08 Warning: Further gmin increment
Trying gmin =   8.6596E-08 Note: One successful gmin step
Trying gmin =   6.9783E-08 Warning: Further gmin increment
Trying gmin =   8.2047E-08 Warning: Further gmin increment
Trying gmin =   8.5436E-08 Note: One successful gmin step
Trying gmin =   8.3724E-08 Warning: Further gmin increment
Trying gmin =   8.5005E-08 Note: One successful gmin step
Trying gmin =   8.4362E-08 Note: One successful gmin step
Trying gmin =   8.3407E-08 Warning: Further gmin increment
Trying gmin =   8.4122E-08 Note: One successful gmin step
Trying gmin =   8.3764E-08 Warning: Further gmin increment
Trying gmin =   8.4033E-08 Warning: Further gmin increment
Trying gmin =   8.4100E-08 Note: One successful gmin step
Trying gmin =   8.4066E-08 Warning: Further gmin increment
Trying gmin =   8.4092E-08 Warning: Further gmin increment
Trying gmin =   8.4098E-08 Warning: Last gmin step failed
Warning: True gmin stepping failed
Note: Starting dynamic gmin stepping
Trying gmin =   1.0000E-03 Note: One successful gmin step
Trying gmin =   1.0000E-04 Note: One successful gmin step
Trying gmin =   1.0000E-05 Note: One successful gmin step
Trying gmin =   1.0000E-06 Warning: Further gmin increment
Trying gmin =   5.6234E-06 Note: One successful gmin step
Trying gmin =   3.1623E-06 Note: One successful gmin step
Trying gmin =   1.3335E-06 Warning: Further gmin increment
Trying gmin =   2.5483E-06 Note: One successful gmin step
Trying gmin =   1.8434E-06 Note: One successful gmin step
Trying gmin =   1.1342E-06 Warning: Further gmin increment
Trying gmin =   1.6326E-06 Warning: Further gmin increment
Trying gmin =   1.7883E-06 Note: One successful gmin step
Trying gmin =   1.7087E-06 Warning: Further gmin increment
Trying gmin =   1.7681E-06 Note: One successful gmin step
Trying gmin =   1.7381E-06 Note: One successful gmin step
Trying gmin =   1.6942E-06 Warning: Further gmin increment
Trying gmin =   1.7270E-06 Note: One successful gmin step
Trying gmin =   1.7105E-06 Warning: Further gmin increment
Trying gmin =   1.7229E-06 Warning: Further gmin increment
Trying gmin =   1.7260E-06 Note: One successful gmin step
Trying gmin =   1.7244E-06 Note: One successful gmin step
Trying gmin =   1.7221E-06 Note: One successful gmin step
Trying gmin =   1.7186E-06 Note: One successful gmin step
Trying gmin =   1.7134E-06 Note: One successful gmin step
Trying gmin =   1.7056E-06 Note: One successful gmin step
Trying gmin =   1.6940E-06 Note: One successful gmin step
Trying gmin =   1.6767E-06 Note: One successful gmin step
Trying gmin =   1.6511E-06 Note: One successful gmin step
Trying gmin =   1.6134E-06 Note: One successful gmin step
Trying gmin =   1.5585E-06 Note: One successful gmin step
Trying gmin =   1.4797E-06 Note: One successful gmin step
Trying gmin =   1.3688E-06 Note: One successful gmin step
Trying gmin =   1.2179E-06 Note: One successful gmin step
Trying gmin =   1.0221E-06 Note: One successful gmin step
Trying gmin =   7.8584E-07 Note: One successful gmin step
Trying gmin =   5.2977E-07 Note: One successful gmin step
Trying gmin =   2.9324E-07 Note: One successful gmin step
Trying gmin =   1.2076E-07 Note: One successful gmin step
Trying gmin =   3.1913E-08 Note: One successful gmin step
Trying gmin =   4.3354E-09 Note: One successful gmin step
Trying gmin =   4.3354E-10 Note: One successful gmin step
Trying gmin =   4.3354E-11 Note: One successful gmin step
Trying gmin =   4.3354E-12 Note: One successful gmin step
Trying gmin =   1.0000E-12 Note: One successful gmin step
Note: Dynamic gmin stepping completed
 Reference value :  2.80000e+00Note: Starting true gmin stepping
Trying gmin =   1.0000E-03 Note: One successful gmin step
Trying gmin =   1.0000E-04 Note: One successful gmin step
Trying gmin =   1.0000E-05 Note: One successful gmin step
Trying gmin =   1.0000E-06 Note: One successful gmin step
Trying gmin =   1.0000E-07 Note: One successful gmin step
Trying gmin =   1.0000E-08 Warning: Further gmin increment
Trying gmin =   5.6234E-08 Note: One successful gmin step
Trying gmin =   2.3714E-08 Note: One successful gmin step
Trying gmin =   1.0000E-08 Note: One successful gmin step
Trying gmin =   2.7384E-09 Warning: Further gmin increment
Trying gmin =   7.2339E-09 Note: One successful gmin step
Trying gmin =   4.4508E-09 Note: One successful gmin step
Trying gmin =   2.1480E-09 Note: One successful gmin step
Trying gmin =   7.2015E-10 Note: One successful gmin step
Trying gmin =   1.3980E-10 Note: One successful gmin step
Trying gmin =   1.3980E-11 Note: One successful gmin step
Trying gmin =   1.3980E-12 Note: One successful gmin step
Trying gmin =   1.0000E-12 Note: One successful gmin step
Note: True gmin stepping completed
Note: Starting true gmin stepping
Trying gmin =   1.0000E-03 Note: One successful gmin step
Trying gmin =   1.0000E-04 Note: One successful gmin step
Trying gmin =   1.0000E-05 Note: One successful gmin step
Trying gmin =   1.0000E-06 Note: One successful gmin step
Trying gmin =   1.0000E-07 Note: One successful gmin step
Trying gmin =   1.0000E-08 Warning: Further gmin increment
Trying gmin =   5.6234E-08 Note: One successful gmin step
Trying gmin =   2.3714E-08 Note: One successful gmin step
Trying gmin =   1.0000E-08 Note: One successful gmin step
Trying gmin =   2.7384E-09 Note: One successful gmin step
Trying gmin =   3.9242E-10 Note: One successful gmin step
Trying gmin =   3.9242E-11 Note: One successful gmin step
Trying gmin =   3.9242E-12 Note: One successful gmin step
Trying gmin =   1.0000E-12 Note: One successful gmin step
Note: True gmin stepping completed
 Reference value :  1.24000e+00pm                  =  6.647938e+01
Doing analysis at TEMP = 27.000000 and TNOM = 27.000000


No. of Data Rows : 91
psrr100             =  -6.864207e+01
psrr100k            =  -2.853482e+01
Doing analysis at TEMP = 27.000000 and TNOM = 27.000000


No. of Data Rows : 86
temp_coeff = 5.194284e+01
Doing analysis at TEMP = 27.000000 and TNOM = 27.000000


No. of Data Rows : 141
vldo_sup_2          =  1.799554e+00
vldo_sup_2_8        =  1.799300e+00
line_reg = 3.175000e-04
Note: No ".plot", ".print", or ".fourier" lines; no simulations run
vin                 =  1.764104e+00
dropout = 1.040000e-04
