 Reference value :  0.00000e+00
No compatibility mode selected!


Circuit: * ldo netlist 

Doing analysis at TEMP = 85.000000 and TNOM = 27.000000


No. of Data Rows : 1
bg_out = 1.096396e+00
inn = 1.058368e+00
inp = 1.058300e+00
l1#branch = 0.000000e+00
ldo_out = 1.802171e+00
m.xm1.msky130_fd_pr__nfet_g5v0d10v5#body = 2.771537e-11
m.xm1.msky130_fd_pr__nfet_g5v0d10v5#dbody = 5.331029e-11
m.xm1.msky130_fd_pr__nfet_g5v0d10v5#sbody = 2.983581e-11
m.xm2.msky130_fd_pr__pfet_g5v0d10v5#body = 2.300000e+00
m.xm2.msky130_fd_pr__pfet_g5v0d10v5#dbody = 2.300000e+00
m.xm2.msky130_fd_pr__pfet_g5v0d10v5#sbody = 2.300000e+00
m.xm3.msky130_fd_pr__pfet_g5v0d10v5#body = 2.300000e+00
m.xm3.msky130_fd_pr__pfet_g5v0d10v5#dbody = 2.300000e+00
m.xm3.msky130_fd_pr__pfet_g5v0d10v5#sbody = 2.300000e+00
m.xm4.msky130_fd_pr__pfet_g5v0d10v5#body = 2.300000e+00
m.xm4.msky130_fd_pr__pfet_g5v0d10v5#dbody = 2.300000e+00
m.xm4.msky130_fd_pr__pfet_g5v0d10v5#sbody = 2.300000e+00
m.xm5.msky130_fd_pr__pfet_g5v0d10v5#body = 2.300000e+00
m.xm5.msky130_fd_pr__pfet_g5v0d10v5#dbody = 2.300000e+00
m.xm5.msky130_fd_pr__pfet_g5v0d10v5#sbody = 2.300000e+00
m.xm6.msky130_fd_pr__nfet_g5v0d10v5#body = 1.977079e-11
m.xm6.msky130_fd_pr__nfet_g5v0d10v5#dbody = 4.942687e-11
m.xm6.msky130_fd_pr__nfet_g5v0d10v5#sbody = 9.885506e-12
m.xm7.msky130_fd_pr__pfet_g5v0d10v5#body = 2.300000e+00
m.xm7.msky130_fd_pr__pfet_g5v0d10v5#dbody = 2.300000e+00
m.xm7.msky130_fd_pr__pfet_g5v0d10v5#sbody = 2.300000e+00
m.xm8.msky130_fd_pr__pfet_g5v0d10v5#body = 2.300000e+00
m.xm8.msky130_fd_pr__pfet_g5v0d10v5#dbody = 2.300000e+00
m.xm8.msky130_fd_pr__pfet_g5v0d10v5#sbody = 2.300000e+00
m.xm9.msky130_fd_pr__nfet_g5v0d10v5#body = 2.581141e-11
m.xm9.msky130_fd_pr__nfet_g5v0d10v5#dbody = 5.155790e-11
m.xm9.msky130_fd_pr__nfet_g5v0d10v5#sbody = 2.587633e-11
m.xm10.msky130_fd_pr__nfet_g5v0d10v5#body = 2.551039e-11
m.xm10.msky130_fd_pr__nfet_g5v0d10v5#dbody = 5.080534e-11
m.xm10.msky130_fd_pr__nfet_g5v0d10v5#sbody = 2.572582e-11
m.xm11.msky130_fd_pr__pfet_g5v0d10v5#body = 2.300000e+00
m.xm11.msky130_fd_pr__pfet_g5v0d10v5#dbody = 2.300000e+00
m.xm11.msky130_fd_pr__pfet_g5v0d10v5#sbody = 2.300000e+00
m.xm12.msky130_fd_pr__pfet_g5v0d10v5#body = 2.300000e+00
m.xm12.msky130_fd_pr__pfet_g5v0d10v5#dbody = 2.300000e+00
m.xm12.msky130_fd_pr__pfet_g5v0d10v5#sbody = 2.300000e+00
m.xm13.msky130_fd_pr__nfet_g5v0d10v5#body = 4.839258e-12
m.xm13.msky130_fd_pr__nfet_g5v0d10v5#dbody = 1.209808e-11
m.xm13.msky130_fd_pr__nfet_g5v0d10v5#sbody = 2.419693e-12
m.xm14.msky130_fd_pr__pfet_g5v0d10v5#body = 2.300000e+00
m.xm14.msky130_fd_pr__pfet_g5v0d10v5#dbody = 2.300000e+00
m.xm14.msky130_fd_pr__pfet_g5v0d10v5#sbody = 2.300000e+00
m.xm15.msky130_fd_pr__nfet_g5v0d10v5#body = 2.964030e-14
m.xm15.msky130_fd_pr__nfet_g5v0d10v5#dbody = 7.409936e-14
m.xm15.msky130_fd_pr__nfet_g5v0d10v5#sbody = 1.482155e-14
m.xm16.msky130_fd_pr__nfet_g5v0d10v5#body = 5.253406e-11
m.xm16.msky130_fd_pr__nfet_g5v0d10v5#dbody = 9.432150e-11
m.xm16.msky130_fd_pr__nfet_g5v0d10v5#sbody = 6.328069e-11
m.xm17.msky130_fd_pr__pfet_g5v0d10v5#body = 2.300000e+00
m.xm17.msky130_fd_pr__pfet_g5v0d10v5#dbody = 2.300000e+00
m.xm17.msky130_fd_pr__pfet_g5v0d10v5#sbody = 2.300000e+00
m.xm18.msky130_fd_pr__nfet_g5v0d10v5#body = 2.256774e-11
m.xm18.msky130_fd_pr__nfet_g5v0d10v5#dbody = 5.625236e-11
m.xm18.msky130_fd_pr__nfet_g5v0d10v5#sbody = 1.128395e-11
m.xm19.msky130_fd_pr__nfet_g5v0d10v5#body = 2.781435e-11
m.xm19.msky130_fd_pr__nfet_g5v0d10v5#dbody = 5.355774e-11
m.xm19.msky130_fd_pr__nfet_g5v0d10v5#sbody = 2.988530e-11
m.xm20.msky130_fd_pr__nfet_g5v0d10v5#body = 1.344681e-11
m.xm20.msky130_fd_pr__nfet_g5v0d10v5#dbody = 3.361694e-11
m.xm20.msky130_fd_pr__nfet_g5v0d10v5#sbody = 6.723477e-12
m.xm22.msky130_fd_pr__nfet_g5v0d10v5#body = 1.127992e-11
m.xm22.msky130_fd_pr__nfet_g5v0d10v5#dbody = 2.819969e-11
m.xm22.msky130_fd_pr__nfet_g5v0d10v5#sbody = 5.640061e-12
m.xm24.msky130_fd_pr__pfet_g5v0d10v5#body = 2.300000e+00
m.xm24.msky130_fd_pr__pfet_g5v0d10v5#dbody = 2.300000e+00
m.xm24.msky130_fd_pr__pfet_g5v0d10v5#sbody = 2.300000e+00
m.xm26.msky130_fd_pr__pfet_g5v0d10v5#body = 2.300000e+00
m.xm26.msky130_fd_pr__pfet_g5v0d10v5#dbody = 2.300000e+00
m.xm26.msky130_fd_pr__pfet_g5v0d10v5#sbody = 2.300000e+00
mir = 1.155926e+00
net1 = 6.283599e-01
net2 = 5.725240e-05
net3 = 7.016335e-01
net4 = 2.175542e-01
net5 = 1.163844e+00
net6 = 8.958366e-01
net7 = 7.015645e-01
net8 = 1.231649e+00
net9 = 1.255731e+00
net10 = 2.287665e-01
net11 = 1.640205e+00
net12 = 1.640205e+00
net13 = 0.000000e+00
out = 1.640205e+00
pos = 1.096664e+00
q.xq2.qsky130_fd_pr__pnp_05v5_w0p68l0p68#collcx = 2.837459e-03
q.xq3.qsky130_fd_pr__pnp_05v5_w0p68l0p68#collcx = 3.579859e-04
q.xq4.qsky130_fd_pr__pnp_05v5_w0p68l0p68#collcx = 3.579859e-04
q.xq8.qsky130_fd_pr__pnp_05v5_w0p68l0p68#collcx = 3.579859e-04
q.xq10.qsky130_fd_pr__pnp_05v5_w0p68l0p68#collcx = 3.579859e-04
q.xq12.qsky130_fd_pr__pnp_05v5_w0p68l0p68#collcx = 3.579859e-04
q.xq14.qsky130_fd_pr__pnp_05v5_w0p68l0p68#collcx = 3.579859e-04
q.xq16.qsky130_fd_pr__pnp_05v5_w0p68l0p68#collcx = 3.579859e-04
q.xq18.qsky130_fd_pr__pnp_05v5_w0p68l0p68#collcx = 3.579859e-04
vb = 9.172071e-01
vdd = 2.300000e+00
vs#branch = -1.82934e-04
vt#branch = 0.000000e+00
xc1.a = 0.000000e+00
xc1.b1 = 0.000000e+00
xc3.a = 1.640205e+00
xc3.b1 = 1.640205e+00
xr1.xsky130_fd_pr__res_xhigh_po_0p69.ra = 7.099862e-01
xr2.xsky130_fd_pr__res_xhigh_po_0p69.ra = 7.100552e-01
xr3.xsky130_fd_pr__res_xhigh_po_0p69.ra = 5.152479e-03
xr4.xsky130_fd_pr__res_xhigh_po_0p69.ra = 6.317261e-01
xr5.xsky130_fd_pr__res_xhigh_po_0p69.ra = 5.151943e-03
xr6.xsky130_fd_pr__res_xhigh_po_0p69.ra = 8.906278e-03
xr7.xsky130_fd_pr__res_xhigh_po_0p69.ra = 1.640205e+00
xr8.xsky130_fd_pr__res_xhigh_po_0p69.ra = 1.110198e+00
xr9.xsky130_fd_pr__res_xhigh_po_0p69.ra = 1.397215e-02
Doing analysis at TEMP = 85.000000 and TNOM = 27.000000


No. of Data Rows : 91
Note: Starting true gmin stepping
Trying gmin =   1.0000E-03 Note: One successful gmin step
Trying gmin =   1.0000E-04 Note: One successful gmin step
Trying gmin =   1.0000E-05 Note: One successful gmin step
Trying gmin =   1.0000E-06 Note: One successful gmin step
Trying gmin =   1.0000E-07 Warning: Further gmin increment
Trying gmin =   5.6234E-07 Note: One successful gmin step
Trying gmin =   2.3714E-07 Note: One successful gmin step
Trying gmin =   6.4938E-08 Warning: Further gmin increment
Trying gmin =   1.7154E-07 Note: One successful gmin step
Trying gmin =   1.0554E-07 Warning: Further gmin increment
Trying gmin =   1.5193E-07 Note: One successful gmin step
Trying gmin =   1.2663E-07 Note: One successful gmin step
Trying gmin =   9.6358E-08 Warning: Further gmin increment
Trying gmin =   1.1827E-07 Warning: Further gmin increment
Trying gmin =   1.2449E-07 Note: One successful gmin step
Trying gmin =   1.2134E-07 Note: One successful gmin step
Trying gmin =   1.1677E-07 Warning: Further gmin increment
Trying gmin =   1.2018E-07 Note: One successful gmin step
Trying gmin =   1.1846E-07 Warning: Further gmin increment
Trying gmin =   1.1975E-07 Note: One successful gmin step
Trying gmin =   1.1910E-07 Note: One successful gmin step
Trying gmin =   1.1814E-07 Warning: Further gmin increment
Trying gmin =   1.1886E-07 Note: One successful gmin step
Trying gmin =   1.1850E-07 Warning: Further gmin increment
Trying gmin =   1.1877E-07 Note: One successful gmin step
Trying gmin =   1.1863E-07 Note: One successful gmin step
Trying gmin =   1.1843E-07 Warning: Further gmin increment
Trying gmin =   1.1858E-07 Note: One successful gmin step
Trying gmin =   1.1851E-07 Warning: Further gmin increment
Trying gmin =   1.1857E-07 Note: One successful gmin step
Trying gmin =   1.1854E-07 Note: One successful gmin step
Trying gmin =   1.1849E-07 Warning: Further gmin increment
Trying gmin =   1.1853E-07 Warning: Further gmin increment
Trying gmin =   1.1853E-07 Warning: Last gmin step failed
Warning: True gmin stepping failed
Note: Starting dynamic gmin stepping
Trying gmin =   1.0000E-03 Note: One successful gmin step
Trying gmin =   1.0000E-04 Note: One successful gmin step
Trying gmin =   1.0000E-05 Note: One successful gmin step
Trying gmin =   1.0000E-06 Note: One successful gmin step
Trying gmin =   1.0000E-07 Warning: Further gmin increment
Trying gmin =   5.6234E-07 Note: One successful gmin step
Trying gmin =   2.3714E-07 Warning: Further gmin increment
Trying gmin =   4.5316E-07 Warning: Further gmin increment
Trying gmin =   5.3280E-07 Warning: Further gmin increment
Trying gmin =   5.5481E-07 Warning: Further gmin increment
Trying gmin =   5.6045E-07 Note: One successful gmin step
Trying gmin =   5.5762E-07 Note: One successful gmin step
Trying gmin =   5.5340E-07 Warning: Further gmin increment
Trying gmin =   5.5656E-07 Note: One successful gmin step
Trying gmin =   5.5498E-07 Note: One successful gmin step
Trying gmin =   5.5262E-07 Warning: Further gmin increment
Trying gmin =   5.5439E-07 Warning: Further gmin increment
Trying gmin =   5.5483E-07 Warning: Further gmin increment
Trying gmin =   5.5494E-07 Note: One successful gmin step
Trying gmin =   5.5489E-07 Note: One successful gmin step
Trying gmin =   5.5480E-07 Warning: Further gmin increment
Trying gmin =   5.5487E-07 Warning: Last gmin step failed
Warning: Dynamic gmin stepping failed
Note: Starting source stepping
Supplies reduced to   0.0000% Note: One successful source step
Supplies reduced to   0.1000% Note: One successful source step
Supplies reduced to   0.2000% Note: One successful source step
Supplies reduced to   0.3500% Note: One successful source step
Supplies reduced to   0.5750% Note: One successful source step
Supplies reduced to   0.9125% Note: One successful source step
Supplies reduced to   1.4188% Note: One successful source step
Supplies reduced to   2.1781% Note: One successful source step
Supplies reduced to   3.3172% Note: One successful source step
Supplies reduced to   5.0258% Note: One successful source step
Supplies reduced to   7.5887% Note: One successful source step
Supplies reduced to  11.4330% Note: One successful source step
Supplies reduced to  17.1995% Note: One successful source step
Supplies reduced to  25.8493% Supplies reduced to  17.1995% Note: One successful source step
Supplies reduced to  18.1995% Note: One successful source step
Supplies reduced to  19.6995% Note: One successful source step
Supplies reduced to  21.9495% Note: One successful source step
Supplies reduced to  25.3245% Supplies reduced to  21.9495% Note: One successful source step
Supplies reduced to  22.2870% Note: One successful source step
Supplies reduced to  22.7933% Note: One successful source step
Supplies reduced to  23.5526% Supplies reduced to  22.7933% Note: One successful source step
Supplies reduced to  22.9072% Note: One successful source step
Supplies reduced to  23.0780% Note: One successful source step
Supplies reduced to  23.3343% Note: One successful source step
Supplies reduced to  23.7188% Note: One successful source step
Supplies reduced to  24.2954% Note: One successful source step
Supplies reduced to  25.1604% Note: One successful source step
Supplies reduced to  26.4578% Note: One successful source step
Supplies reduced to  28.4040% Note: One successful source step
Supplies reduced to  31.3233% Note: One successful source step
Supplies reduced to  35.7023% Note: One successful source step
Supplies reduced to  42.2707% Note: One successful source step
Supplies reduced to  52.1233% Note: One successful source step
Supplies reduced to  66.9022% Supplies reduced to  52.1233% Note: One successful source step
Supplies reduced to  53.1233% Note: One successful source step
Supplies reduced to  54.6233% Note: One successful source step
Supplies reduced to  56.8733% Note: One successful source step
Supplies reduced to  60.2483% Note: One successful source step
Supplies reduced to  65.3108% Supplies reduced to  60.2483% Note: One successful source step
Supplies reduced to  61.0077% Note: One successful source step
Supplies reduced to  62.1467% Supplies reduced to  61.0077% Note: One successful source step
Supplies reduced to  61.1785% Supplies reduced to  61.0077% Note: One successful source step
Supplies reduced to  61.0333% Supplies reduced to  61.0077% Note: One successful source step
Supplies reduced to  61.0115% Note: One successful source step
Supplies reduced to  61.0173% Note: One successful source step
Supplies reduced to  61.0259% Note: One successful source step
Supplies reduced to  61.0389% Supplies reduced to  61.0259% Note: One successful source step
Supplies reduced to  61.0279% Supplies reduced to  61.0259% Note: One successful source step
Supplies reduced to  61.0262% Note: One successful source step
Supplies reduced to  61.0267% Note: One successful source step
Supplies reduced to  61.0273% Note: One successful source step
Supplies reduced to  61.0283% Supplies reduced to  61.0273% Note: One successful source step
Supplies reduced to  61.0275% Note: One successful source step
Supplies reduced to  61.0277% Supplies reduced to  61.0275% Note: One successful source step
Supplies reduced to  61.0275% Note: One successful source step
Supplies reduced to  61.0275% Warning: source stepping failed
doAnalyses: Too many iterations without convergence

dc simulation(s) aborted
Error(parse.c--checkvalid): vldo_sup_2_8: zero length vector.
Error: RHS "abs((vldo_sup_2_8-vldo_sup_2)/0.8)" invalid
Error(parse.c--checkvalid): line_reg: zero length vector.
Error(parse.c--checkvalid): vin: zero length vector.
Error: RHS "vin-1.764" invalid
Error(parse.c--checkvalid): dropout: zero length vector.
Error: no such vector dropout
Note: No ".plot", ".print", or ".fourier" lines; no simulations run
pm                  =  6.486202e+01
Doing analysis at TEMP = 85.000000 and TNOM = 27.000000


No. of Data Rows : 91
psrr100             =  -5.270182e+01
psrr100k            =  -2.656219e+01
Doing analysis at TEMP = 85.000000 and TNOM = 27.000000


No. of Data Rows : 86
temp_coeff = 3.030607e+01
Doing analysis at TEMP = 85.000000 and TNOM = 27.000000


Error: measure  vldo_sup_2  (AT) : out of interval
 meas dc vldo_sup_2 find ldo_out at=2 failed!


Error: measure  vldo_sup_2_8  (AT) : out of interval
 meas dc vldo_sup_2_8 find ldo_out at=2.8 failed!


Error: measure  vin  (WHEN) : out of interval
 meas dc vin when v(ldo_out)=1.764 failed!

