 Reference value :  0.00000e+00
No compatibility mode selected!


Circuit: * ldo netlist 

Doing analysis at TEMP = 27.000000 and TNOM = 27.000000


No. of Data Rows : 1
bg_out = 1.098805e+00
inn = 1.144122e+00
inp = 1.144025e+00
l1#branch = 0.000000e+00
ldo_out = 1.806836e+00
m.xm1.msky130_fd_pr__nfet_g5v0d10v5#body = 1.428906e-11
m.xm1.msky130_fd_pr__nfet_g5v0d10v5#dbody = 3.122434e-11
m.xm1.msky130_fd_pr__nfet_g5v0d10v5#sbody = 1.164284e-11
m.xm2.msky130_fd_pr__pfet_g5v0d10v5#body = 2.100000e+00
m.xm2.msky130_fd_pr__pfet_g5v0d10v5#dbody = 2.100000e+00
m.xm2.msky130_fd_pr__pfet_g5v0d10v5#sbody = 2.100000e+00
m.xm3.msky130_fd_pr__pfet_g5v0d10v5#body = 2.100000e+00
m.xm3.msky130_fd_pr__pfet_g5v0d10v5#dbody = 2.100000e+00
m.xm3.msky130_fd_pr__pfet_g5v0d10v5#sbody = 2.100000e+00
m.xm4.msky130_fd_pr__pfet_g5v0d10v5#body = 2.100000e+00
m.xm4.msky130_fd_pr__pfet_g5v0d10v5#dbody = 2.100000e+00
m.xm4.msky130_fd_pr__pfet_g5v0d10v5#sbody = 2.100000e+00
m.xm5.msky130_fd_pr__pfet_g5v0d10v5#body = 2.100000e+00
m.xm5.msky130_fd_pr__pfet_g5v0d10v5#dbody = 2.100000e+00
m.xm5.msky130_fd_pr__pfet_g5v0d10v5#sbody = 2.100000e+00
m.xm6.msky130_fd_pr__nfet_g5v0d10v5#body = 1.249543e-11
m.xm6.msky130_fd_pr__nfet_g5v0d10v5#dbody = 3.123856e-11
m.xm6.msky130_fd_pr__nfet_g5v0d10v5#sbody = 6.247718e-12
m.xm7.msky130_fd_pr__pfet_g5v0d10v5#body = 2.100000e+00
m.xm7.msky130_fd_pr__pfet_g5v0d10v5#dbody = 2.100000e+00
m.xm7.msky130_fd_pr__pfet_g5v0d10v5#sbody = 2.100000e+00
m.xm8.msky130_fd_pr__pfet_g5v0d10v5#body = 2.100000e+00
m.xm8.msky130_fd_pr__pfet_g5v0d10v5#dbody = 2.100000e+00
m.xm8.msky130_fd_pr__pfet_g5v0d10v5#sbody = 2.100000e+00
m.xm9.msky130_fd_pr__nfet_g5v0d10v5#body = 1.508119e-11
m.xm9.msky130_fd_pr__nfet_g5v0d10v5#dbody = 3.429863e-11
m.xm9.msky130_fd_pr__nfet_g5v0d10v5#sbody = 1.094494e-11
m.xm10.msky130_fd_pr__nfet_g5v0d10v5#body = 1.468329e-11
m.xm10.msky130_fd_pr__nfet_g5v0d10v5#dbody = 3.330388e-11
m.xm10.msky130_fd_pr__nfet_g5v0d10v5#sbody = 1.074599e-11
m.xm11.msky130_fd_pr__pfet_g5v0d10v5#body = 2.100000e+00
m.xm11.msky130_fd_pr__pfet_g5v0d10v5#dbody = 2.100000e+00
m.xm11.msky130_fd_pr__pfet_g5v0d10v5#sbody = 2.100000e+00
m.xm12.msky130_fd_pr__pfet_g5v0d10v5#body = 2.100000e+00
m.xm12.msky130_fd_pr__pfet_g5v0d10v5#dbody = 2.100000e+00
m.xm12.msky130_fd_pr__pfet_g5v0d10v5#sbody = 2.100000e+00
m.xm13.msky130_fd_pr__nfet_g5v0d10v5#body = 1.700826e-12
m.xm13.msky130_fd_pr__nfet_g5v0d10v5#dbody = 4.252055e-12
m.xm13.msky130_fd_pr__nfet_g5v0d10v5#sbody = 8.504226e-13
m.xm14.msky130_fd_pr__pfet_g5v0d10v5#body = 2.100000e+00
m.xm14.msky130_fd_pr__pfet_g5v0d10v5#dbody = 2.100000e+00
m.xm14.msky130_fd_pr__pfet_g5v0d10v5#sbody = 2.100000e+00
m.xm15.msky130_fd_pr__nfet_g5v0d10v5#body = 4.054556e-16
m.xm15.msky130_fd_pr__nfet_g5v0d10v5#dbody = 1.013629e-15
m.xm15.msky130_fd_pr__nfet_g5v0d10v5#sbody = 2.027379e-16
m.xm16.msky130_fd_pr__nfet_g5v0d10v5#body = 4.056028e-11
m.xm16.msky130_fd_pr__nfet_g5v0d10v5#dbody = 7.278889e-11
m.xm16.msky130_fd_pr__nfet_g5v0d10v5#sbody = 4.889194e-11
m.xm17.msky130_fd_pr__pfet_g5v0d10v5#body = 2.100000e+00
m.xm17.msky130_fd_pr__pfet_g5v0d10v5#dbody = 2.100000e+00
m.xm17.msky130_fd_pr__pfet_g5v0d10v5#sbody = 2.100000e+00
m.xm18.msky130_fd_pr__nfet_g5v0d10v5#body = 1.767286e-11
m.xm18.msky130_fd_pr__nfet_g5v0d10v5#dbody = 4.417983e-11
m.xm18.msky130_fd_pr__nfet_g5v0d10v5#sbody = 8.836444e-12
m.xm19.msky130_fd_pr__nfet_g5v0d10v5#body = 1.443045e-11
m.xm19.msky130_fd_pr__nfet_g5v0d10v5#dbody = 3.157781e-11
m.xm19.msky130_fd_pr__nfet_g5v0d10v5#sbody = 1.171354e-11
m.xm20.msky130_fd_pr__nfet_g5v0d10v5#body = 1.313197e-11
m.xm20.msky130_fd_pr__nfet_g5v0d10v5#dbody = 3.282990e-11
m.xm20.msky130_fd_pr__nfet_g5v0d10v5#sbody = 6.565995e-12
m.xm22.msky130_fd_pr__nfet_g5v0d10v5#body = 2.251864e-12
m.xm22.msky130_fd_pr__nfet_g5v0d10v5#dbody = 5.629656e-12
m.xm22.msky130_fd_pr__nfet_g5v0d10v5#sbody = 1.125937e-12
m.xm24.msky130_fd_pr__pfet_g5v0d10v5#body = 2.100000e+00
m.xm24.msky130_fd_pr__pfet_g5v0d10v5#dbody = 2.100000e+00
m.xm24.msky130_fd_pr__pfet_g5v0d10v5#sbody = 2.100000e+00
m.xm26.msky130_fd_pr__pfet_g5v0d10v5#body = 2.100000e+00
m.xm26.msky130_fd_pr__pfet_g5v0d10v5#dbody = 2.100000e+00
m.xm26.msky130_fd_pr__pfet_g5v0d10v5#sbody = 2.100000e+00
mir = 9.628424e-01
net1 = 7.274206e-01
net2 = 3.119448e-05
net3 = 7.872744e-01
net4 = 1.795828e-01
net5 = 9.741534e-01
net6 = 9.990668e-01
net7 = 7.871756e-01
net8 = 1.038248e+00
net9 = 1.070080e+00
net10 = 1.359341e-01
net11 = 1.413604e+00
net12 = 1.413604e+00
net13 = 0.000000e+00
out = 1.413604e+00
pos = 1.099133e+00
q.xq2.qsky130_fd_pr__pnp_05v5_w0p68l0p68#collcx = 2.274153e-03
q.xq3.qsky130_fd_pr__pnp_05v5_w0p68l0p68#collcx = 2.866494e-04
q.xq4.qsky130_fd_pr__pnp_05v5_w0p68l0p68#collcx = 2.866494e-04
q.xq8.qsky130_fd_pr__pnp_05v5_w0p68l0p68#collcx = 2.866494e-04
q.xq10.qsky130_fd_pr__pnp_05v5_w0p68l0p68#collcx = 2.866494e-04
q.xq12.qsky130_fd_pr__pnp_05v5_w0p68l0p68#collcx = 2.866494e-04
q.xq14.qsky130_fd_pr__pnp_05v5_w0p68l0p68#collcx = 2.866494e-04
q.xq16.qsky130_fd_pr__pnp_05v5_w0p68l0p68#collcx = 2.866494e-04
q.xq18.qsky130_fd_pr__pnp_05v5_w0p68l0p68#collcx = 2.866494e-04
vb = 1.050424e+00
vdd = 2.100000e+00
vs#branch = -1.80737e-04
vt#branch = 0.000000e+00
xc1.a = 0.000000e+00
xc1.b1 = 0.000000e+00
xc3.a = 1.413604e+00
xc3.b1 = 1.413604e+00
xr1.xsky130_fd_pr__res_xhigh_po_0p69.ra = 7.901567e-01
xr2.xsky130_fd_pr__res_xhigh_po_0p69.ra = 7.902555e-01
xr3.xsky130_fd_pr__res_xhigh_po_0p69.ra = 2.064300e-03
xr4.xsky130_fd_pr__res_xhigh_po_0p69.ra = 7.283940e-01
xr5.xsky130_fd_pr__res_xhigh_po_0p69.ra = 2.064024e-03
xr6.xsky130_fd_pr__res_xhigh_po_0p69.ra = 3.165254e-03
xr7.xsky130_fd_pr__res_xhigh_po_0p69.ra = 1.413604e+00
xr8.xsky130_fd_pr__res_xhigh_po_0p69.ra = 1.103941e+00
xr9.xsky130_fd_pr__res_xhigh_po_0p69.ra = 4.963352e-03
Doing analysis at TEMP = 27.000000 and TNOM = 27.000000


No. of Data Rows : 91
Note: Starting true gmin stepping
Trying gmin =   1.0000E-03 Note: One successful gmin step
Trying gmin =   1.0000E-04 Note: One successful gmin step
Trying gmin =   1.0000E-05 Note: One successful gmin step
Trying gmin =   1.0000E-06 Note: One successful gmin step
Trying gmin =   1.0000E-07 Warning: Further gmin increment
Trying gmin =   5.6234E-07 Note: One successful gmin step
Trying gmin =   3.1623E-07 Note: One successful gmin step
Trying gmin =   1.3335E-07 Note: One successful gmin step
Trying gmin =   3.6517E-08 Warning: Further gmin increment
Trying gmin =   9.6466E-08 Note: One successful gmin step
Trying gmin =   5.9352E-08 Warning: Further gmin increment
Trying gmin =   8.5436E-08 Note: One successful gmin step
Trying gmin =   7.1210E-08 Warning: Further gmin increment
Trying gmin =   8.1633E-08 Note: One successful gmin step
Trying gmin =   7.6243E-08 Note: One successful gmin step
Trying gmin =   6.8819E-08 Warning: Further gmin increment
Trying gmin =   7.4315E-08 Note: One successful gmin step
Trying gmin =   7.2436E-08 Note: One successful gmin step
Trying gmin =   6.9706E-08 Note: One successful gmin step
Trying gmin =   6.5802E-08 Note: One successful gmin step
Trying gmin =   6.0353E-08 Note: One successful gmin step
Trying gmin =   5.3013E-08 Note: One successful gmin step
Trying gmin =   4.3643E-08 Note: One successful gmin step
Trying gmin =   3.2599E-08 Note: One successful gmin step
Trying gmin =   2.1045E-08 Note: One successful gmin step
Trying gmin =   1.0916E-08 Note: One successful gmin step
Trying gmin =   4.0779E-09 Note: One successful gmin step
Trying gmin =   9.3108E-10 Note: One successful gmin step
Trying gmin =   1.0158E-10 Note: One successful gmin step
Trying gmin =   1.0158E-11 Note: One successful gmin step
Trying gmin =   1.0158E-12 Note: One successful gmin step
Trying gmin =   1.0000E-12 Note: One successful gmin step
Note: True gmin stepping completed
 Reference value :  2.80000e+00Note: Starting true gmin stepping
Trying gmin =   1.0000E-03 Note: One successful gmin step
Trying gmin =   1.0000E-04 Note: One successful gmin step
Trying gmin =   1.0000E-05 Note: One successful gmin step
Trying gmin =   1.0000E-06 Note: One successful gmin step
Trying gmin =   1.0000E-07 Note: One successful gmin step
Trying gmin =   1.0000E-08 Note: One successful gmin step
Trying gmin =   1.0000E-09 Note: One successful gmin step
Trying gmin =   1.0000E-10 Note: One successful gmin step
Trying gmin =   1.0000E-11 Note: One successful gmin step
Trying gmin =   1.0000E-12 Note: One successful gmin step
Trying gmin =   1.0000E-12 Note: One successful gmin step
Note: True gmin stepping completed
Note: Starting true gmin stepping
Trying gmin =   1.0000E-03 Note: One successful gmin step
Trying gmin =   1.0000E-04 Note: One successful gmin step
Trying gmin =   1.0000E-05 Note: One successful gmin step
Trying gmin =   1.0000E-06 Note: One successful gmin step
Trying gmin =   1.0000E-07 Note: One successful gmin step
Trying gmin =   1.0000E-08 Note: One successful gmin step
Trying gmin =   3.1623E-09 Note: One successful gmin step
Trying gmin =   5.6234E-10 Note: One successful gmin step
Trying gmin =   5.6234E-11 Note: One successful gmin step
Trying gmin =   5.6234E-12 Warning: Further gmin increment
Trying gmin =   3.1623E-11 Note: One successful gmin step
Trying gmin =   1.3335E-11 Note: One successful gmin step
Trying gmin =   3.6517E-12 Warning: Further gmin increment
Trying gmin =   9.6466E-12 Warning: Further gmin increment
Trying gmin =   1.2298E-11 Note: One successful gmin step
Trying gmin =   1.0892E-11 Warning: Further gmin increment
Trying gmin =   1.1931E-11 Warning: Further gmin increment
Trying gmin =   1.2205E-11 Note: One successful gmin step
Trying gmin =   1.2067E-11 Note: One successful gmin step
Trying gmin =   1.1863E-11 Note: One successful gmin step
Trying gmin =   1.1662E-11 Note: One successful gmin step
Trying gmin =   1.1367E-11 Note: One successful gmin step
Trying gmin =   1.0939E-11 Note: One successful gmin step
Trying gmin =   1.0326E-11 Note: One successful gmin step
Trying gmin =   9.4709E-12 Note: One successful gmin step
Trying gmin =   8.3192E-12 Note: One successful gmin step
Trying gmin =   6.8487E-12 Note: One successful gmin step
Trying gmin =   5.1157E-12 Note: One successful gmin step
Trying gmin =   3.3025E-12 Note: One successful gmin step
Trying gmin =   1.7130E-12 Note: One successful gmin step
Trying gmin =   1.0000E-12 Note: One successful gmin step
Note: True gmin stepping completed
 Reference value :  1.14000e+00Note: Starting true gmin stepping
Trying gmin =   1.0000E-03 Note: One successful gmin step
Trying gmin =   1.0000E-04 Note: One successful gmin step
Trying gmin =   1.0000E-05 Note: One successful gmin step
Trying gmin =   1.0000E-06 Note: One successful gmin step
Trying gmin =   1.0000E-07 Note: One successful gmin step
Trying gmin =   1.0000E-08 Note: One successful gmin step
Trying gmin =   1.0000E-09 Note: One successful gmin step
Trying gmin =   1.0000E-10 Note: One successful gmin step
Trying gmin =   1.0000E-11 Note: One successful gmin step
Trying gmin =   1.0000E-12 Warning: Further gmin increment
Trying gmin =   5.6234E-12 Note: One successful gmin step
Trying gmin =   2.3714E-12 Note: One successful gmin step
Trying gmin =   1.0000E-12 Warning: Further gmin increment
Trying gmin =   1.9110E-12 Note: One successful gmin step
Trying gmin =   1.3824E-12 Note: One successful gmin step
Trying gmin =   1.0000E-12 Note: One successful gmin step
Note: True gmin stepping completed
 Reference value :  6.40000e-01pm                  =  6.850014e+01
Doing analysis at TEMP = 27.000000 and TNOM = 27.000000


No. of Data Rows : 91
psrr100             =  -7.458038e+01
psrr100k            =  -2.548251e+01
Doing analysis at TEMP = 27.000000 and TNOM = 27.000000


No. of Data Rows : 86
temp_coeff = 5.009960e+01
Doing analysis at TEMP = 27.000000 and TNOM = 27.000000


No. of Data Rows : 141
vldo_sup_2          =  1.806853e+00
vldo_sup_2_8        =  1.806756e+00
line_reg = 1.212500e-04
Note: No ".plot", ".print", or ".fourier" lines; no simulations run
vin                 =  1.764101e+00
dropout = 1.010000e-04
