 Reference value :  0.00000e+00
No compatibility mode selected!


Circuit: * ldo netlist 

Doing analysis at TEMP = 85.000000 and TNOM = 27.000000


No. of Data Rows : 1
bg_out = 1.095536e+00
inn = 1.058085e+00
inp = 1.057940e+00
l1#branch = 0.000000e+00
ldo_out = 1.800613e+00
m.xm1.msky130_fd_pr__nfet_g5v0d10v5#body = 2.579955e-11
m.xm1.msky130_fd_pr__nfet_g5v0d10v5#dbody = 4.966878e-11
m.xm1.msky130_fd_pr__nfet_g5v0d10v5#sbody = 2.772988e-11
m.xm2.msky130_fd_pr__pfet_g5v0d10v5#body = 2.100000e+00
m.xm2.msky130_fd_pr__pfet_g5v0d10v5#dbody = 2.100000e+00
m.xm2.msky130_fd_pr__pfet_g5v0d10v5#sbody = 2.100000e+00
m.xm3.msky130_fd_pr__pfet_g5v0d10v5#body = 2.100000e+00
m.xm3.msky130_fd_pr__pfet_g5v0d10v5#dbody = 2.100000e+00
m.xm3.msky130_fd_pr__pfet_g5v0d10v5#sbody = 2.100000e+00
m.xm4.msky130_fd_pr__pfet_g5v0d10v5#body = 2.100000e+00
m.xm4.msky130_fd_pr__pfet_g5v0d10v5#dbody = 2.100000e+00
m.xm4.msky130_fd_pr__pfet_g5v0d10v5#sbody = 2.100000e+00
m.xm5.msky130_fd_pr__pfet_g5v0d10v5#body = 2.100000e+00
m.xm5.msky130_fd_pr__pfet_g5v0d10v5#dbody = 2.100000e+00
m.xm5.msky130_fd_pr__pfet_g5v0d10v5#sbody = 2.100000e+00
m.xm6.msky130_fd_pr__nfet_g5v0d10v5#body = 2.047225e-11
m.xm6.msky130_fd_pr__nfet_g5v0d10v5#dbody = 5.118052e-11
m.xm6.msky130_fd_pr__nfet_g5v0d10v5#sbody = 1.023624e-11
m.xm7.msky130_fd_pr__pfet_g5v0d10v5#body = 2.100000e+00
m.xm7.msky130_fd_pr__pfet_g5v0d10v5#dbody = 2.100000e+00
m.xm7.msky130_fd_pr__pfet_g5v0d10v5#sbody = 2.100000e+00
m.xm8.msky130_fd_pr__pfet_g5v0d10v5#body = 2.100000e+00
m.xm8.msky130_fd_pr__pfet_g5v0d10v5#dbody = 2.100000e+00
m.xm8.msky130_fd_pr__pfet_g5v0d10v5#sbody = 2.100000e+00
m.xm9.msky130_fd_pr__nfet_g5v0d10v5#body = 2.396478e-11
m.xm9.msky130_fd_pr__nfet_g5v0d10v5#dbody = 4.813755e-11
m.xm9.msky130_fd_pr__nfet_g5v0d10v5#sbody = 2.375680e-11
m.xm10.msky130_fd_pr__nfet_g5v0d10v5#body = 2.377532e-11
m.xm10.msky130_fd_pr__nfet_g5v0d10v5#dbody = 4.766389e-11
m.xm10.msky130_fd_pr__nfet_g5v0d10v5#sbody = 2.366207e-11
m.xm11.msky130_fd_pr__pfet_g5v0d10v5#body = 2.100000e+00
m.xm11.msky130_fd_pr__pfet_g5v0d10v5#dbody = 2.100000e+00
m.xm11.msky130_fd_pr__pfet_g5v0d10v5#sbody = 2.100000e+00
m.xm12.msky130_fd_pr__pfet_g5v0d10v5#body = 2.100000e+00
m.xm12.msky130_fd_pr__pfet_g5v0d10v5#dbody = 2.100000e+00
m.xm12.msky130_fd_pr__pfet_g5v0d10v5#sbody = 2.100000e+00
m.xm13.msky130_fd_pr__nfet_g5v0d10v5#body = 4.247019e-12
m.xm13.msky130_fd_pr__nfet_g5v0d10v5#dbody = 1.061749e-11
m.xm13.msky130_fd_pr__nfet_g5v0d10v5#sbody = 2.123569e-12
m.xm14.msky130_fd_pr__pfet_g5v0d10v5#body = 2.100000e+00
m.xm14.msky130_fd_pr__pfet_g5v0d10v5#dbody = 2.100000e+00
m.xm14.msky130_fd_pr__pfet_g5v0d10v5#sbody = 2.100000e+00
m.xm15.msky130_fd_pr__nfet_g5v0d10v5#body = 2.991313e-14
m.xm15.msky130_fd_pr__nfet_g5v0d10v5#dbody = 7.478199e-14
m.xm15.msky130_fd_pr__nfet_g5v0d10v5#sbody = 1.495739e-14
m.xm16.msky130_fd_pr__nfet_g5v0d10v5#body = 5.010462e-11
m.xm16.msky130_fd_pr__nfet_g5v0d10v5#dbody = 8.818087e-11
m.xm16.msky130_fd_pr__nfet_g5v0d10v5#sbody = 6.213300e-11
m.xm17.msky130_fd_pr__pfet_g5v0d10v5#body = 2.100000e+00
m.xm17.msky130_fd_pr__pfet_g5v0d10v5#dbody = 2.100000e+00
m.xm17.msky130_fd_pr__pfet_g5v0d10v5#sbody = 2.100000e+00
m.xm18.msky130_fd_pr__nfet_g5v0d10v5#body = 1.037378e-11
m.xm18.msky130_fd_pr__nfet_g5v0d10v5#dbody = 2.593437e-11
m.xm18.msky130_fd_pr__nfet_g5v0d10v5#sbody = 5.186961e-12
m.xm19.msky130_fd_pr__nfet_g5v0d10v5#body = 2.599729e-11
m.xm19.msky130_fd_pr__nfet_g5v0d10v5#dbody = 5.016311e-11
m.xm19.msky130_fd_pr__nfet_g5v0d10v5#sbody = 2.782874e-11
m.xm20.msky130_fd_pr__nfet_g5v0d10v5#body = 1.452887e-11
m.xm20.msky130_fd_pr__nfet_g5v0d10v5#dbody = 3.632209e-11
m.xm20.msky130_fd_pr__nfet_g5v0d10v5#sbody = 7.264508e-12
m.xm22.msky130_fd_pr__nfet_g5v0d10v5#body = 1.069115e-11
m.xm22.msky130_fd_pr__nfet_g5v0d10v5#dbody = 2.672779e-11
m.xm22.msky130_fd_pr__nfet_g5v0d10v5#sbody = 5.345675e-12
m.xm24.msky130_fd_pr__pfet_g5v0d10v5#body = 2.100000e+00
m.xm24.msky130_fd_pr__pfet_g5v0d10v5#dbody = 2.100000e+00
m.xm24.msky130_fd_pr__pfet_g5v0d10v5#sbody = 2.100000e+00
m.xm26.msky130_fd_pr__pfet_g5v0d10v5#body = 2.100000e+00
m.xm26.msky130_fd_pr__pfet_g5v0d10v5#dbody = 2.100000e+00
m.xm26.msky130_fd_pr__pfet_g5v0d10v5#sbody = 2.100000e+00
mir = 1.045618e+00
net1 = 6.283180e-01
net2 = 5.765574e-05
net3 = 7.015768e-01
net4 = 1.705758e-01
net5 = 1.061437e+00
net6 = 9.489898e-01
net7 = 7.014293e-01
net8 = 1.137729e+00
net9 = 1.152886e+00
net10 = 1.790022e-01
net11 = 6.684011e-01
net12 = 6.684011e-01
net13 = 0.000000e+00
out = 6.684011e-01
pos = 1.095715e+00
q.xq2.qsky130_fd_pr__pnp_05v5_w0p68l0p68#collcx = 2.833390e-03
q.xq3.qsky130_fd_pr__pnp_05v5_w0p68l0p68#collcx = 3.575301e-04
q.xq4.qsky130_fd_pr__pnp_05v5_w0p68l0p68#collcx = 3.575301e-04
q.xq8.qsky130_fd_pr__pnp_05v5_w0p68l0p68#collcx = 3.575301e-04
q.xq10.qsky130_fd_pr__pnp_05v5_w0p68l0p68#collcx = 3.575301e-04
q.xq12.qsky130_fd_pr__pnp_05v5_w0p68l0p68#collcx = 3.575301e-04
q.xq14.qsky130_fd_pr__pnp_05v5_w0p68l0p68#collcx = 3.575301e-04
q.xq16.qsky130_fd_pr__pnp_05v5_w0p68l0p68#collcx = 3.575301e-04
q.xq18.qsky130_fd_pr__pnp_05v5_w0p68l0p68#collcx = 3.575301e-04
vb = 1.000808e+00
vdd = 2.100000e+00
vs#branch = -1.00163e-01
vt#branch = 0.000000e+00
xc1.a = 0.000000e+00
xc1.b1 = 0.000000e+00
xc3.a = 6.684011e-01
xc3.b1 = 6.684011e-01
xr1.xsky130_fd_pr__res_xhigh_po_0p69.ra = 7.098456e-01
xr2.xsky130_fd_pr__res_xhigh_po_0p69.ra = 7.099930e-01
xr3.xsky130_fd_pr__res_xhigh_po_0p69.ra = 5.152038e-03
xr4.xsky130_fd_pr__res_xhigh_po_0p69.ra = 6.316799e-01
xr5.xsky130_fd_pr__res_xhigh_po_0p69.ra = 5.150893e-03
xr6.xsky130_fd_pr__res_xhigh_po_0p69.ra = 8.898689e-03
xr7.xsky130_fd_pr__res_xhigh_po_0p69.ra = 6.684011e-01
xr8.xsky130_fd_pr__res_xhigh_po_0p69.ra = 1.109238e+00
xr9.xsky130_fd_pr__res_xhigh_po_0p69.ra = 1.395904e-02
Doing analysis at TEMP = 85.000000 and TNOM = 27.000000


No. of Data Rows : 91
Error: no such vector PM
Note: Starting true gmin stepping
Trying gmin =   1.0000E-03 Note: One successful gmin step
Trying gmin =   1.0000E-04 Note: One successful gmin step
Trying gmin =   1.0000E-05 Note: One successful gmin step
Trying gmin =   1.0000E-06 Warning: Further gmin increment
Trying gmin =   5.6234E-06 Note: One successful gmin step
Trying gmin =   2.3714E-06 Note: One successful gmin step
Trying gmin =   6.4938E-07 Warning: Further gmin increment
Trying gmin =   1.7154E-06 Note: One successful gmin step
Trying gmin =   1.0554E-06 Note: One successful gmin step
Trying gmin =   5.0937E-07 Note: One successful gmin step
Trying gmin =   1.7077E-07 Note: One successful gmin step
Trying gmin =   3.3152E-08 Note: One successful gmin step
Trying gmin =   3.3152E-09 Note: One successful gmin step
Trying gmin =   3.3152E-10 Note: One successful gmin step
Trying gmin =   3.3152E-11 Note: One successful gmin step
Trying gmin =   3.3152E-12 Note: One successful gmin step
Trying gmin =   1.0000E-12 Note: One successful gmin step
Note: True gmin stepping completed
 Reference value :  2.80000e+00Note: Starting true gmin stepping
Trying gmin =   1.0000E-03 Note: One successful gmin step
Trying gmin =   1.0000E-04 Note: One successful gmin step
Trying gmin =   1.0000E-05 Note: One successful gmin step
Trying gmin =   1.0000E-06 Note: One successful gmin step
Trying gmin =   1.0000E-07 Note: One successful gmin step
Trying gmin =   1.0000E-08 Note: One successful gmin step
Trying gmin =   1.0000E-09 Note: One successful gmin step
Trying gmin =   1.0000E-10 Warning: Further gmin increment
Trying gmin =   5.6234E-10 Note: One successful gmin step
Trying gmin =   2.3714E-10 Note: One successful gmin step
Trying gmin =   6.4938E-11 Warning: Further gmin increment
Trying gmin =   1.7154E-10 Note: One successful gmin step
Trying gmin =   1.0554E-10 Note: One successful gmin step
Trying gmin =   5.0937E-11 Note: One successful gmin step
Trying gmin =   1.7077E-11 Note: One successful gmin step
Trying gmin =   3.3152E-12 Note: One successful gmin step
Trying gmin =   1.0000E-12 Note: One successful gmin step
Note: True gmin stepping completed
 Reference value :  1.04000e+00Note: Starting true gmin stepping
Trying gmin =   1.0000E-03 Note: One successful gmin step
Trying gmin =   1.0000E-04 Note: One successful gmin step
Trying gmin =   1.0000E-05 Note: One successful gmin step
Trying gmin =   1.0000E-06 Note: One successful gmin step
Trying gmin =   1.0000E-07 Note: One successful gmin step
Trying gmin =   1.0000E-08 Note: One successful gmin step
Trying gmin =   1.0000E-09 Note: One successful gmin step
Trying gmin =   1.0000E-10 Warning: Further gmin increment
Trying gmin =   5.6234E-10 Note: One successful gmin step
Trying gmin =   3.1623E-10 Note: One successful gmin step
Trying gmin =   1.3335E-10 Warning: Further gmin increment
Trying gmin =   2.5483E-10 Note: One successful gmin step
Trying gmin =   1.8434E-10 Note: One successful gmin step
Trying gmin =   1.1342E-10 Warning: Further gmin increment
Trying gmin =   1.6326E-10 Note: One successful gmin step
Trying gmin =   1.3608E-10 Note: One successful gmin step
Trying gmin =   1.0355E-10 Note: One successful gmin step
Trying gmin =   6.8732E-11 Note: One successful gmin step
Trying gmin =   3.7170E-11 Note: One successful gmin step
Trying gmin =   1.4782E-11 Note: One successful gmin step
Trying gmin =   3.7073E-12 Note: One successful gmin step
Trying gmin =   1.0000E-12 Note: One successful gmin step
Note: True gmin stepping completed
 Reference value :  5.20000e-01
Error: measure  pm  (AT) : out of interval
 meas ac pm find p when vdb(ldo_out)=0 failed!

Doing analysis at TEMP = 85.000000 and TNOM = 27.000000


No. of Data Rows : 91
psrr100             =  -4.722470e+01
psrr100k            =  -1.578288e+01
Doing analysis at TEMP = 85.000000 and TNOM = 27.000000


No. of Data Rows : 86
temp_coeff = 4.302039e+01
Doing analysis at TEMP = 85.000000 and TNOM = 27.000000


No. of Data Rows : 141
vldo_sup_2          =  1.800046e+00
vldo_sup_2_8        =  1.802241e+00
line_reg = 2.743750e-03
Note: No ".plot", ".print", or ".fourier" lines; no simulations run
vin                 =  1.916107e+00
dropout = 1.521070e-01
