 Reference value :  0.00000e+00
No compatibility mode selected!


Circuit: * ldo netlist 

Doing analysis at TEMP = 85.000000 and TNOM = 27.000000


No. of Data Rows : 1
bg_out = 1.101751e+00
inn = 1.064458e+00
inp = 1.064324e+00
l1#branch = 0.000000e+00
ldo_out = 1.811859e+00
m.xm1.msky130_fd_pr__nfet_g5v0d10v5#body = 2.817161e-11
m.xm1.msky130_fd_pr__nfet_g5v0d10v5#dbody = 5.556576e-11
m.xm1.msky130_fd_pr__nfet_g5v0d10v5#sbody = 2.894908e-11
m.xm2.msky130_fd_pr__pfet_g5v0d10v5#body = 2.300000e+00
m.xm2.msky130_fd_pr__pfet_g5v0d10v5#dbody = 2.300000e+00
m.xm2.msky130_fd_pr__pfet_g5v0d10v5#sbody = 2.300000e+00
m.xm3.msky130_fd_pr__pfet_g5v0d10v5#body = 2.300000e+00
m.xm3.msky130_fd_pr__pfet_g5v0d10v5#dbody = 2.300000e+00
m.xm3.msky130_fd_pr__pfet_g5v0d10v5#sbody = 2.300000e+00
m.xm4.msky130_fd_pr__pfet_g5v0d10v5#body = 2.300000e+00
m.xm4.msky130_fd_pr__pfet_g5v0d10v5#dbody = 2.300000e+00
m.xm4.msky130_fd_pr__pfet_g5v0d10v5#sbody = 2.300000e+00
m.xm5.msky130_fd_pr__pfet_g5v0d10v5#body = 2.300000e+00
m.xm5.msky130_fd_pr__pfet_g5v0d10v5#dbody = 2.300000e+00
m.xm5.msky130_fd_pr__pfet_g5v0d10v5#sbody = 2.300000e+00
m.xm6.msky130_fd_pr__nfet_g5v0d10v5#body = 2.059921e-11
m.xm6.msky130_fd_pr__nfet_g5v0d10v5#dbody = 5.149790e-11
m.xm6.msky130_fd_pr__nfet_g5v0d10v5#sbody = 1.029973e-11
m.xm7.msky130_fd_pr__pfet_g5v0d10v5#body = 2.300000e+00
m.xm7.msky130_fd_pr__pfet_g5v0d10v5#dbody = 2.300000e+00
m.xm7.msky130_fd_pr__pfet_g5v0d10v5#sbody = 2.300000e+00
m.xm8.msky130_fd_pr__pfet_g5v0d10v5#body = 2.300000e+00
m.xm8.msky130_fd_pr__pfet_g5v0d10v5#dbody = 2.300000e+00
m.xm8.msky130_fd_pr__pfet_g5v0d10v5#sbody = 2.300000e+00
m.xm9.msky130_fd_pr__nfet_g5v0d10v5#body = 2.638059e-11
m.xm9.msky130_fd_pr__nfet_g5v0d10v5#dbody = 5.415001e-11
m.xm9.msky130_fd_pr__nfet_g5v0d10v5#sbody = 2.499177e-11
m.xm10.msky130_fd_pr__nfet_g5v0d10v5#body = 2.597738e-11
m.xm10.msky130_fd_pr__nfet_g5v0d10v5#dbody = 5.314199e-11
m.xm10.msky130_fd_pr__nfet_g5v0d10v5#sbody = 2.479016e-11
m.xm11.msky130_fd_pr__pfet_g5v0d10v5#body = 2.300000e+00
m.xm11.msky130_fd_pr__pfet_g5v0d10v5#dbody = 2.300000e+00
m.xm11.msky130_fd_pr__pfet_g5v0d10v5#sbody = 2.300000e+00
m.xm12.msky130_fd_pr__pfet_g5v0d10v5#body = 2.300000e+00
m.xm12.msky130_fd_pr__pfet_g5v0d10v5#dbody = 2.300000e+00
m.xm12.msky130_fd_pr__pfet_g5v0d10v5#sbody = 2.300000e+00
m.xm13.msky130_fd_pr__nfet_g5v0d10v5#body = 4.260317e-12
m.xm13.msky130_fd_pr__nfet_g5v0d10v5#dbody = 1.065073e-11
m.xm13.msky130_fd_pr__nfet_g5v0d10v5#sbody = 2.130223e-12
m.xm14.msky130_fd_pr__pfet_g5v0d10v5#body = 2.300000e+00
m.xm14.msky130_fd_pr__pfet_g5v0d10v5#dbody = 2.300000e+00
m.xm14.msky130_fd_pr__pfet_g5v0d10v5#sbody = 2.300000e+00
m.xm15.msky130_fd_pr__nfet_g5v0d10v5#body = 8.089133e-14
m.xm15.msky130_fd_pr__nfet_g5v0d10v5#dbody = 2.022260e-13
m.xm15.msky130_fd_pr__nfet_g5v0d10v5#sbody = 4.044796e-14
m.xm16.msky130_fd_pr__nfet_g5v0d10v5#body = 5.268428e-11
m.xm16.msky130_fd_pr__nfet_g5v0d10v5#dbody = 9.447070e-11
m.xm16.msky130_fd_pr__nfet_g5v0d10v5#sbody = 6.358214e-11
m.xm17.msky130_fd_pr__pfet_g5v0d10v5#body = 2.300000e+00
m.xm17.msky130_fd_pr__pfet_g5v0d10v5#dbody = 2.300000e+00
m.xm17.msky130_fd_pr__pfet_g5v0d10v5#sbody = 2.300000e+00
m.xm18.msky130_fd_pr__nfet_g5v0d10v5#body = 2.430460e-11
m.xm18.msky130_fd_pr__nfet_g5v0d10v5#dbody = 5.998636e-11
m.xm18.msky130_fd_pr__nfet_g5v0d10v5#sbody = 1.215238e-11
m.xm19.msky130_fd_pr__nfet_g5v0d10v5#body = 2.837400e-11
m.xm19.msky130_fd_pr__nfet_g5v0d10v5#dbody = 5.607173e-11
m.xm19.msky130_fd_pr__nfet_g5v0d10v5#sbody = 2.905027e-11
m.xm20.msky130_fd_pr__nfet_g5v0d10v5#body = 1.466524e-11
m.xm20.msky130_fd_pr__nfet_g5v0d10v5#dbody = 3.666302e-11
m.xm20.msky130_fd_pr__nfet_g5v0d10v5#sbody = 7.332702e-12
m.xm22.msky130_fd_pr__nfet_g5v0d10v5#body = 1.070845e-11
m.xm22.msky130_fd_pr__nfet_g5v0d10v5#dbody = 2.677102e-11
m.xm22.msky130_fd_pr__nfet_g5v0d10v5#sbody = 5.354333e-12
m.xm24.msky130_fd_pr__pfet_g5v0d10v5#body = 2.300000e+00
m.xm24.msky130_fd_pr__pfet_g5v0d10v5#dbody = 2.300000e+00
m.xm24.msky130_fd_pr__pfet_g5v0d10v5#sbody = 2.300000e+00
m.xm26.msky130_fd_pr__pfet_g5v0d10v5#body = 2.300000e+00
m.xm26.msky130_fd_pr__pfet_g5v0d10v5#dbody = 2.300000e+00
m.xm26.msky130_fd_pr__pfet_g5v0d10v5#sbody = 2.300000e+00
mir = 1.234056e+00
net1 = 6.312874e-01
net2 = 1.561385e-04
net3 = 7.051245e-01
net4 = 1.718108e-01
net5 = 1.250247e+00
net6 = 9.591460e-01
net7 = 7.049888e-01
net8 = 1.312812e+00
net9 = 1.345068e+00
net10 = 1.800430e-01
net11 = 1.751865e+00
net12 = 1.751865e+00
net13 = 0.000000e+00
out = 1.751865e+00
pos = 1.102107e+00
q.xq2.qsky130_fd_pr__pnp_05v5_w0p68l0p68#collcx = 3.096818e-03
q.xq3.qsky130_fd_pr__pnp_05v5_w0p68l0p68#collcx = 3.911125e-04
q.xq4.qsky130_fd_pr__pnp_05v5_w0p68l0p68#collcx = 3.911125e-04
q.xq8.qsky130_fd_pr__pnp_05v5_w0p68l0p68#collcx = 3.911125e-04
q.xq10.qsky130_fd_pr__pnp_05v5_w0p68l0p68#collcx = 3.911125e-04
q.xq12.qsky130_fd_pr__pnp_05v5_w0p68l0p68#collcx = 3.911125e-04
q.xq14.qsky130_fd_pr__pnp_05v5_w0p68l0p68#collcx = 3.911125e-04
q.xq16.qsky130_fd_pr__pnp_05v5_w0p68l0p68#collcx = 3.911125e-04
q.xq18.qsky130_fd_pr__pnp_05v5_w0p68l0p68#collcx = 3.911125e-04
vb = 1.011718e+00
vdd = 2.300000e+00
vs#branch = -1.93494e-04
vt#branch = 0.000000e+00
xc1.a = 0.000000e+00
xc1.b1 = 0.000000e+00
xc3.a = 1.751865e+00
xc3.b1 = 1.751865e+00
xr1.xsky130_fd_pr__res_xhigh_po_0p69.ra = 7.082364e-01
xr2.xsky130_fd_pr__res_xhigh_po_0p69.ra = 7.083721e-01
xr3.xsky130_fd_pr__res_xhigh_po_0p69.ra = 1.987268e-03
xr4.xsky130_fd_pr__res_xhigh_po_0p69.ra = 6.325854e-01
xr5.xsky130_fd_pr__res_xhigh_po_0p69.ra = 1.986863e-03
xr6.xsky130_fd_pr__res_xhigh_po_0p69.ra = 3.435417e-03
xr7.xsky130_fd_pr__res_xhigh_po_0p69.ra = 1.751865e+00
xr8.xsky130_fd_pr__res_xhigh_po_0p69.ra = 1.107325e+00
xr9.xsky130_fd_pr__res_xhigh_po_0p69.ra = 5.386404e-03
Doing analysis at TEMP = 85.000000 and TNOM = 27.000000


No. of Data Rows : 91
Note: Starting true gmin stepping
Trying gmin =   1.0000E-03 Note: One successful gmin step
Trying gmin =   1.0000E-04 Note: One successful gmin step
Trying gmin =   1.0000E-05 Note: One successful gmin step
Trying gmin =   1.0000E-06 Note: One successful gmin step
Trying gmin =   1.0000E-07 Note: One successful gmin step
Trying gmin =   1.0000E-08 Warning: Further gmin increment
Trying gmin =   5.6234E-08 Warning: Further gmin increment
Trying gmin =   8.6596E-08 Note: One successful gmin step
Trying gmin =   6.9783E-08 Warning: Further gmin increment
Trying gmin =   8.2047E-08 Note: One successful gmin step
Trying gmin =   7.5667E-08 Note: One successful gmin step
Trying gmin =   6.9783E-08 Note: One successful gmin step
Trying gmin =   6.1804E-08 Note: One successful gmin step
Trying gmin =   5.1513E-08 Note: One successful gmin step
Trying gmin =   3.9198E-08 Note: One successful gmin step
Trying gmin =   2.6019E-08 Note: One successful gmin step
Trying gmin =   1.4071E-08 Note: One successful gmin step
Trying gmin =   5.5958E-09 Note: One successful gmin step
Trying gmin =   1.4034E-09 Note: One successful gmin step
Trying gmin =   1.7627E-10 Note: One successful gmin step
Trying gmin =   1.7627E-11 Note: One successful gmin step
Trying gmin =   1.7627E-12 Note: One successful gmin step
Trying gmin =   1.0000E-12 Note: One successful gmin step
Note: True gmin stepping completed
 Reference value :  2.80000e+00Note: Starting true gmin stepping
Trying gmin =   1.0000E-03 Note: One successful gmin step
Trying gmin =   1.0000E-04 Note: One successful gmin step
Trying gmin =   1.0000E-05 Note: One successful gmin step
Trying gmin =   1.0000E-06 Note: One successful gmin step
Trying gmin =   1.0000E-07 Note: One successful gmin step
Trying gmin =   1.0000E-08 Note: One successful gmin step
Trying gmin =   3.1623E-09 Note: One successful gmin step
Trying gmin =   5.6234E-10 Note: One successful gmin step
Trying gmin =   5.6234E-11 Warning: Further gmin increment
Trying gmin =   3.1623E-10 Note: One successful gmin step
Trying gmin =   1.3335E-10 Warning: Further gmin increment
Trying gmin =   2.5483E-10 Note: One successful gmin step
Trying gmin =   1.8434E-10 Note: One successful gmin step
Trying gmin =   1.1342E-10 Note: One successful gmin step
Trying gmin =   5.4737E-11 Note: One successful gmin step
Trying gmin =   1.8352E-11 Note: One successful gmin step
Trying gmin =   3.5625E-12 Note: One successful gmin step
Trying gmin =   1.0000E-12 Note: One successful gmin step
Note: True gmin stepping completed
 Reference value :  1.08000e+00Note: Starting true gmin stepping
Trying gmin =   1.0000E-03 Note: One successful gmin step
Trying gmin =   1.0000E-04 Note: One successful gmin step
Trying gmin =   1.0000E-05 Note: One successful gmin step
Trying gmin =   1.0000E-06 Note: One successful gmin step
Trying gmin =   1.0000E-07 Note: One successful gmin step
Trying gmin =   1.0000E-08 Note: One successful gmin step
Trying gmin =   1.0000E-09 Note: One successful gmin step
Trying gmin =   1.0000E-10 Warning: Further gmin increment
Trying gmin =   5.6234E-10 Note: One successful gmin step
Trying gmin =   2.3714E-10 Note: One successful gmin step
Trying gmin =   6.4938E-11 Warning: Further gmin increment
Trying gmin =   1.7154E-10 Note: One successful gmin step
Trying gmin =   1.0554E-10 Note: One successful gmin step
Trying gmin =   5.0937E-11 Note: One successful gmin step
Trying gmin =   1.7077E-11 Note: One successful gmin step
Trying gmin =   3.3152E-12 Note: One successful gmin step
Trying gmin =   1.0000E-12 Note: One successful gmin step
Note: True gmin stepping completed
 Reference value :  1.06000e+00Note: Starting true gmin stepping
Trying gmin =   1.0000E-03 Note: One successful gmin step
Trying gmin =   1.0000E-04 Note: One successful gmin step
Trying gmin =   1.0000E-05 Note: One successful gmin step
Trying gmin =   1.0000E-06 Note: One successful gmin step
Trying gmin =   1.0000E-07 Note: One successful gmin step
Trying gmin =   1.0000E-08 Note: One successful gmin step
Trying gmin =   1.0000E-09 Note: One successful gmin step
Trying gmin =   1.0000E-10 Note: One successful gmin step
Trying gmin =   1.0000E-11 Note: One successful gmin step
Trying gmin =   1.0000E-12 Note: One successful gmin step
Trying gmin =   1.0000E-12 Warning: Last gmin step failed
Warning: True gmin stepping failed
Note: Starting dynamic gmin stepping
Trying gmin =   1.0000E-03 Note: One successful gmin step
Trying gmin =   1.0000E-04 Note: One successful gmin step
Trying gmin =   1.0000E-05 Note: One successful gmin step
Trying gmin =   1.0000E-06 Note: One successful gmin step
Trying gmin =   1.0000E-07 Note: One successful gmin step
Trying gmin =   1.0000E-08 Note: One successful gmin step
Trying gmin =   1.0000E-09 Note: One successful gmin step
Trying gmin =   1.0000E-10 Note: One successful gmin step
Trying gmin =   1.0000E-11 Note: One successful gmin step
Trying gmin =   1.0000E-12 Note: One successful gmin step
Trying gmin =   1.0000E-12 Note: One successful gmin step
Note: Dynamic gmin stepping completed
 Reference value :  5.60000e-01pm                  =  6.753796e+01
Doing analysis at TEMP = 85.000000 and TNOM = 27.000000


No. of Data Rows : 91
psrr100             =  -5.142642e+01
psrr100k            =  -2.642353e+01
Doing analysis at TEMP = 85.000000 and TNOM = 27.000000


No. of Data Rows : 86
temp_coeff = 5.949907e+01
Doing analysis at TEMP = 85.000000 and TNOM = 27.000000


No. of Data Rows : 141
vldo_sup_2          =  1.810770e+00
vldo_sup_2_8        =  1.812819e+00
line_reg = 2.561250e-03
Note: No ".plot", ".print", or ".fourier" lines; no simulations run
vin                 =  1.764114e+00
dropout = 1.140000e-04
