 Reference value :  0.00000e+00
No compatibility mode selected!


Circuit: * ldo netlist 

Doing analysis at TEMP = 27.000000 and TNOM = 27.000000


No. of Data Rows : 1
bg_out = 1.100183e+00
inn = 1.147858e+00
inp = 1.147782e+00
l1#branch = 0.000000e+00
ldo_out = 1.808466e+00
m.xm1.msky130_fd_pr__nfet_g5v0d10v5#body = 1.505881e-11
m.xm1.msky130_fd_pr__nfet_g5v0d10v5#dbody = 3.270676e-11
m.xm1.msky130_fd_pr__nfet_g5v0d10v5#sbody = 1.246966e-11
m.xm2.msky130_fd_pr__pfet_g5v0d10v5#body = 2.300000e+00
m.xm2.msky130_fd_pr__pfet_g5v0d10v5#dbody = 2.300000e+00
m.xm2.msky130_fd_pr__pfet_g5v0d10v5#sbody = 2.300000e+00
m.xm3.msky130_fd_pr__pfet_g5v0d10v5#body = 2.300000e+00
m.xm3.msky130_fd_pr__pfet_g5v0d10v5#dbody = 2.300000e+00
m.xm3.msky130_fd_pr__pfet_g5v0d10v5#sbody = 2.300000e+00
m.xm4.msky130_fd_pr__pfet_g5v0d10v5#body = 2.300000e+00
m.xm4.msky130_fd_pr__pfet_g5v0d10v5#dbody = 2.300000e+00
m.xm4.msky130_fd_pr__pfet_g5v0d10v5#sbody = 2.300000e+00
m.xm5.msky130_fd_pr__pfet_g5v0d10v5#body = 2.300000e+00
m.xm5.msky130_fd_pr__pfet_g5v0d10v5#dbody = 2.300000e+00
m.xm5.msky130_fd_pr__pfet_g5v0d10v5#sbody = 2.300000e+00
m.xm6.msky130_fd_pr__nfet_g5v0d10v5#body = 1.226580e-11
m.xm6.msky130_fd_pr__nfet_g5v0d10v5#dbody = 3.066449e-11
m.xm6.msky130_fd_pr__nfet_g5v0d10v5#sbody = 6.132904e-12
m.xm7.msky130_fd_pr__pfet_g5v0d10v5#body = 2.300000e+00
m.xm7.msky130_fd_pr__pfet_g5v0d10v5#dbody = 2.300000e+00
m.xm7.msky130_fd_pr__pfet_g5v0d10v5#sbody = 2.300000e+00
m.xm8.msky130_fd_pr__pfet_g5v0d10v5#body = 2.300000e+00
m.xm8.msky130_fd_pr__pfet_g5v0d10v5#dbody = 2.300000e+00
m.xm8.msky130_fd_pr__pfet_g5v0d10v5#sbody = 2.300000e+00
m.xm9.msky130_fd_pr__nfet_g5v0d10v5#body = 1.580013e-11
m.xm9.msky130_fd_pr__nfet_g5v0d10v5#dbody = 3.571954e-11
m.xm9.msky130_fd_pr__nfet_g5v0d10v5#sbody = 1.168085e-11
m.xm10.msky130_fd_pr__nfet_g5v0d10v5#body = 1.548259e-11
m.xm10.msky130_fd_pr__nfet_g5v0d10v5#dbody = 3.492568e-11
m.xm10.msky130_fd_pr__nfet_g5v0d10v5#sbody = 1.152207e-11
m.xm11.msky130_fd_pr__pfet_g5v0d10v5#body = 2.300000e+00
m.xm11.msky130_fd_pr__pfet_g5v0d10v5#dbody = 2.300000e+00
m.xm11.msky130_fd_pr__pfet_g5v0d10v5#sbody = 2.300000e+00
m.xm12.msky130_fd_pr__pfet_g5v0d10v5#body = 2.300000e+00
m.xm12.msky130_fd_pr__pfet_g5v0d10v5#dbody = 2.300000e+00
m.xm12.msky130_fd_pr__pfet_g5v0d10v5#sbody = 2.300000e+00
m.xm13.msky130_fd_pr__nfet_g5v0d10v5#body = 1.889038e-12
m.xm13.msky130_fd_pr__nfet_g5v0d10v5#dbody = 4.722586e-12
m.xm13.msky130_fd_pr__nfet_g5v0d10v5#sbody = 9.445287e-13
m.xm14.msky130_fd_pr__pfet_g5v0d10v5#body = 2.300000e+00
m.xm14.msky130_fd_pr__pfet_g5v0d10v5#dbody = 2.300000e+00
m.xm14.msky130_fd_pr__pfet_g5v0d10v5#sbody = 2.300000e+00
m.xm15.msky130_fd_pr__nfet_g5v0d10v5#body = 4.183035e-16
m.xm15.msky130_fd_pr__nfet_g5v0d10v5#dbody = 1.045746e-15
m.xm15.msky130_fd_pr__nfet_g5v0d10v5#sbody = 2.091647e-16
m.xm16.msky130_fd_pr__nfet_g5v0d10v5#body = 4.310696e-11
m.xm16.msky130_fd_pr__nfet_g5v0d10v5#dbody = 7.906221e-11
m.xm16.msky130_fd_pr__nfet_g5v0d10v5#sbody = 5.025866e-11
m.xm17.msky130_fd_pr__pfet_g5v0d10v5#body = 2.300000e+00
m.xm17.msky130_fd_pr__pfet_g5v0d10v5#dbody = 2.300000e+00
m.xm17.msky130_fd_pr__pfet_g5v0d10v5#sbody = 2.300000e+00
m.xm18.msky130_fd_pr__nfet_g5v0d10v5#body = 1.411110e-11
m.xm18.msky130_fd_pr__nfet_g5v0d10v5#dbody = 3.527773e-11
m.xm18.msky130_fd_pr__nfet_g5v0d10v5#sbody = 7.055562e-12
m.xm19.msky130_fd_pr__nfet_g5v0d10v5#body = 1.517632e-11
m.xm19.msky130_fd_pr__nfet_g5v0d10v5#dbody = 3.300054e-11
m.xm19.msky130_fd_pr__nfet_g5v0d10v5#sbody = 1.252841e-11
m.xm20.msky130_fd_pr__nfet_g5v0d10v5#body = 1.284160e-11
m.xm20.msky130_fd_pr__nfet_g5v0d10v5#dbody = 3.210398e-11
m.xm20.msky130_fd_pr__nfet_g5v0d10v5#sbody = 6.420812e-12
m.xm22.msky130_fd_pr__nfet_g5v0d10v5#body = 2.472839e-12
m.xm22.msky130_fd_pr__nfet_g5v0d10v5#dbody = 6.182091e-12
m.xm22.msky130_fd_pr__nfet_g5v0d10v5#sbody = 1.236424e-12
m.xm24.msky130_fd_pr__pfet_g5v0d10v5#body = 2.300000e+00
m.xm24.msky130_fd_pr__pfet_g5v0d10v5#dbody = 2.300000e+00
m.xm24.msky130_fd_pr__pfet_g5v0d10v5#sbody = 2.300000e+00
m.xm26.msky130_fd_pr__pfet_g5v0d10v5#body = 2.300000e+00
m.xm26.msky130_fd_pr__pfet_g5v0d10v5#dbody = 2.300000e+00
m.xm26.msky130_fd_pr__pfet_g5v0d10v5#sbody = 2.300000e+00
mir = 1.006745e+00
net1 = 7.317074e-01
net2 = 3.218380e-05
net3 = 7.910910e-01
net4 = 1.972611e-01
net5 = 1.016146e+00
net6 = 9.806973e-01
net7 = 7.910133e-01
net8 = 1.087135e+00
net9 = 1.112538e+00
net10 = 1.509914e-01
net11 = 1.128755e+00
net12 = 1.128755e+00
net13 = 0.000000e+00
out = 1.128755e+00
pos = 1.100427e+00
q.xq2.qsky130_fd_pr__pnp_05v5_w0p68l0p68#collcx = 2.031519e-03
q.xq3.qsky130_fd_pr__pnp_05v5_w0p68l0p68#collcx = 2.576072e-04
q.xq4.qsky130_fd_pr__pnp_05v5_w0p68l0p68#collcx = 2.576072e-04
q.xq8.qsky130_fd_pr__pnp_05v5_w0p68l0p68#collcx = 2.576072e-04
q.xq10.qsky130_fd_pr__pnp_05v5_w0p68l0p68#collcx = 2.576072e-04
q.xq12.qsky130_fd_pr__pnp_05v5_w0p68l0p68#collcx = 2.576072e-04
q.xq14.qsky130_fd_pr__pnp_05v5_w0p68l0p68#collcx = 2.576072e-04
q.xq16.qsky130_fd_pr__pnp_05v5_w0p68l0p68#collcx = 2.576072e-04
q.xq18.qsky130_fd_pr__pnp_05v5_w0p68l0p68#collcx = 2.576072e-04
vb = 1.027196e+00
vdd = 2.300000e+00
vs#branch = -1.01728e-02
vt#branch = 0.000000e+00
xc1.a = 0.000000e+00
xc1.b1 = 0.000000e+00
xc3.a = 1.128755e+00
xc3.b1 = 1.128755e+00
xr1.xsky130_fd_pr__res_xhigh_po_0p69.ra = 7.964974e-01
xr2.xsky130_fd_pr__res_xhigh_po_0p69.ra = 7.965751e-01
xr3.xsky130_fd_pr__res_xhigh_po_0p69.ra = 3.811845e-03
xr4.xsky130_fd_pr__res_xhigh_po_0p69.ra = 7.334857e-01
xr5.xsky130_fd_pr__res_xhigh_po_0p69.ra = 3.811446e-03
xr6.xsky130_fd_pr__res_xhigh_po_0p69.ra = 5.822696e-03
xr7.xsky130_fd_pr__res_xhigh_po_0p69.ra = 1.128755e+00
xr8.xsky130_fd_pr__res_xhigh_po_0p69.ra = 1.109274e+00
xr9.xsky130_fd_pr__res_xhigh_po_0p69.ra = 9.133803e-03
Doing analysis at TEMP = 27.000000 and TNOM = 27.000000


No. of Data Rows : 91
Error: no such vector PM
Note: Starting true gmin stepping
Trying gmin =   1.0000E-03 Note: One successful gmin step
Trying gmin =   1.0000E-04 Note: One successful gmin step
Trying gmin =   1.0000E-05 Note: One successful gmin step
Trying gmin =   1.0000E-06 Note: One successful gmin step
Trying gmin =   1.0000E-07 Warning: Further gmin increment
Trying gmin =   5.6234E-07 Note: One successful gmin step
Trying gmin =   2.3714E-07 Note: One successful gmin step
Trying gmin =   6.4938E-08 Warning: Further gmin increment
Trying gmin =   1.7154E-07 Note: One successful gmin step
Trying gmin =   1.0554E-07 Warning: Further gmin increment
Trying gmin =   1.5193E-07 Note: One successful gmin step
Trying gmin =   1.2663E-07 Note: One successful gmin step
Trying gmin =   9.6358E-08 Warning: Further gmin increment
Trying gmin =   1.1827E-07 Warning: Further gmin increment
Trying gmin =   1.2449E-07 Note: One successful gmin step
Trying gmin =   1.2134E-07 Note: One successful gmin step
Trying gmin =   1.1677E-07 Warning: Further gmin increment
Trying gmin =   1.2018E-07 Note: One successful gmin step
Trying gmin =   1.1846E-07 Warning: Further gmin increment
Trying gmin =   1.1975E-07 Note: One successful gmin step
Trying gmin =   1.1910E-07 Note: One successful gmin step
Trying gmin =   1.1814E-07 Warning: Further gmin increment
Trying gmin =   1.1886E-07 Note: One successful gmin step
Trying gmin =   1.1850E-07 Warning: Further gmin increment
Trying gmin =   1.1877E-07 Note: One successful gmin step
Trying gmin =   1.1863E-07 Warning: Further gmin increment
Trying gmin =   1.1874E-07 Note: One successful gmin step
Trying gmin =   1.1869E-07 Warning: Further gmin increment
Trying gmin =   1.1872E-07 Note: One successful gmin step
Trying gmin =   1.1870E-07 Warning: Further gmin increment
Trying gmin =   1.1872E-07 Note: One successful gmin step
Trying gmin =   1.1871E-07 Note: One successful gmin step
Trying gmin =   1.1870E-07 Warning: Further gmin increment
Trying gmin =   1.1871E-07 Note: One successful gmin step
Trying gmin =   1.1871E-07 Warning: Last gmin step failed
Warning: True gmin stepping failed
Note: Starting dynamic gmin stepping
Trying gmin =   1.0000E-03 Note: One successful gmin step
Trying gmin =   1.0000E-04 Note: One successful gmin step
Trying gmin =   1.0000E-05 Note: One successful gmin step
Trying gmin =   1.0000E-06 Warning: Further gmin increment
Trying gmin =   5.6234E-06 Note: One successful gmin step
Trying gmin =   3.1623E-06 Note: One successful gmin step
Trying gmin =   1.3335E-06 Note: One successful gmin step
Trying gmin =   3.6517E-07 Warning: Further gmin increment
Trying gmin =   9.6466E-07 Note: One successful gmin step
Trying gmin =   5.9352E-07 Note: One successful gmin step
Trying gmin =   2.8644E-07 Warning: Further gmin increment
Trying gmin =   4.9469E-07 Warning: Further gmin increment
Trying gmin =   5.6710E-07 Note: One successful gmin step
Trying gmin =   5.2966E-07 Warning: Further gmin increment
Trying gmin =   5.5750E-07 Warning: Further gmin increment
Trying gmin =   5.6469E-07 Note: One successful gmin step
Trying gmin =   5.6108E-07 Warning: Further gmin increment
Trying gmin =   5.6378E-07 Note: One successful gmin step
Trying gmin =   5.6243E-07 Note: One successful gmin step
Trying gmin =   5.6041E-07 Warning: Further gmin increment
Trying gmin =   5.6193E-07 Warning: Further gmin increment
Trying gmin =   5.6231E-07 Note: One successful gmin step
Trying gmin =   5.6212E-07 Note: One successful gmin step
Trying gmin =   5.6183E-07 Warning: Further gmin increment
Trying gmin =   5.6204E-07 Warning: Further gmin increment
Trying gmin =   5.6210E-07 Note: One successful gmin step
Trying gmin =   5.6207E-07 Note: One successful gmin step
Trying gmin =   5.6203E-07 Warning: Further gmin increment
Trying gmin =   5.6206E-07 Note: One successful gmin step
Trying gmin =   5.6205E-07 Warning: Last gmin step failed
Warning: Dynamic gmin stepping failed
Note: Starting source stepping
Supplies reduced to   0.0000% Note: One successful source step
Supplies reduced to   0.1000% Note: One successful source step
Supplies reduced to   0.2000% Note: One successful source step
Supplies reduced to   0.3500% Note: One successful source step
Supplies reduced to   0.5750% Note: One successful source step
Supplies reduced to   0.9125% Note: One successful source step
Supplies reduced to   1.4188% Note: One successful source step
Supplies reduced to   2.1781% Note: One successful source step
Supplies reduced to   3.3172% Note: One successful source step
Supplies reduced to   5.0258% Note: One successful source step
Supplies reduced to   7.5887% Note: One successful source step
Supplies reduced to  11.4330% Note: One successful source step
Supplies reduced to  17.1995% Note: One successful source step
Supplies reduced to  25.8493% Note: One successful source step
Supplies reduced to  38.8239% Supplies reduced to  25.8493% Note: One successful source step
Supplies reduced to  26.8493% Note: One successful source step
Supplies reduced to  28.3493% Note: One successful source step
Supplies reduced to  30.5993% Note: One successful source step
Supplies reduced to  33.9743% Note: One successful source step
Supplies reduced to  39.0368% Supplies reduced to  33.9743% Note: One successful source step
Supplies reduced to  34.7336% Note: One successful source step
Supplies reduced to  35.8727% Note: One successful source step
Supplies reduced to  37.5813% Note: One successful source step
Supplies reduced to  40.1442% Note: One successful source step
Supplies reduced to  43.9885% Note: One successful source step
Supplies reduced to  49.7550% Note: One successful source step
Supplies reduced to  58.4048% Note: One successful source step
Supplies reduced to  71.3794% Supplies reduced to  58.4048% Note: One successful source step
Supplies reduced to  59.4048% Note: One successful source step
Supplies reduced to  60.9048% Note: One successful source step
Supplies reduced to  63.1548% Note: One successful source step
Supplies reduced to  66.5298% Supplies reduced to  63.1548% Note: One successful source step
Supplies reduced to  63.6610% Note: One successful source step
Supplies reduced to  64.4204% Note: One successful source step
Supplies reduced to  65.5595% Supplies reduced to  64.4204% Note: One successful source step
Supplies reduced to  64.5913% Note: One successful source step
Supplies reduced to  64.8476% Note: One successful source step
Supplies reduced to  65.2320% Note: One successful source step
Supplies reduced to  65.8086% Supplies reduced to  65.2320% Note: One successful source step
Supplies reduced to  65.3185% Note: One successful source step
Supplies reduced to  65.4482% Supplies reduced to  65.3185% Note: One successful source step
Supplies reduced to  65.3380% Supplies reduced to  65.3185% Note: One successful source step
Supplies reduced to  65.3214% Note: One successful source step
Supplies reduced to  65.3258% Note: One successful source step
Supplies reduced to  65.3324% Supplies reduced to  65.3258% Note: One successful source step
Supplies reduced to  65.3268% Supplies reduced to  65.3258% Note: One successful source step
Supplies reduced to  65.3259% Note: One successful source step
Supplies reduced to  65.3262% Note: One successful source step
Supplies reduced to  65.3265% Supplies reduced to  65.3262% Note: One successful source step
Supplies reduced to  65.3262% Note: One successful source step
Supplies reduced to  65.3263% Note: One successful source step
Supplies reduced to  65.3264% Supplies reduced to  65.3263% Note: One successful source step
Supplies reduced to  65.3263% Note: One successful source step
Supplies reduced to  65.3263% Note: One successful source step
Supplies reduced to  65.3264% Warning: source stepping failed
doAnalyses: Too many iterations without convergence

dc simulation(s) aborted
Error(parse.c--checkvalid): vldo_sup_2_8: zero length vector.
Error: RHS "abs((vldo_sup_2_8-vldo_sup_2)/0.8)" invalid
Error(parse.c--checkvalid): line_reg: zero length vector.
Error(parse.c--checkvalid): vin: zero length vector.
Error: RHS "vin-1.764" invalid
Error(parse.c--checkvalid): dropout: zero length vector.
Error: no such vector dropout
Note: No ".plot", ".print", or ".fourier" lines; no simulations run

Error: measure  pm  (AT) : out of interval
 meas ac pm find p when vdb(ldo_out)=0 failed!

Doing analysis at TEMP = 27.000000 and TNOM = 27.000000


No. of Data Rows : 91
psrr100             =  -8.009547e+01
psrr100k            =  -2.635601e+01
Doing analysis at TEMP = 27.000000 and TNOM = 27.000000


No. of Data Rows : 86
temp_coeff = 4.647302e+01
Doing analysis at TEMP = 27.000000 and TNOM = 27.000000


Error: measure  vldo_sup_2  (AT) : out of interval
 meas dc vldo_sup_2 find ldo_out at=2 failed!


Error: measure  vldo_sup_2_8  (AT) : out of interval
 meas dc vldo_sup_2_8 find ldo_out at=2.8 failed!


Error: measure  vin  (WHEN) : out of interval
 meas dc vin when v(ldo_out)=1.764 failed!

