 Reference value :  0.00000e+00
No compatibility mode selected!


Circuit: * ldo netlist 

Doing analysis at TEMP = 27.000000 and TNOM = 27.000000


No. of Data Rows : 1
bg_out = 1.097395e+00
inn = 1.141904e+00
inp = 1.141872e+00
l1#branch = 0.000000e+00
ldo_out = 1.803711e+00
m.xm1.msky130_fd_pr__nfet_g5v0d10v5#body = 1.887159e-11
m.xm1.msky130_fd_pr__nfet_g5v0d10v5#dbody = 4.146397e-11
m.xm1.msky130_fd_pr__nfet_g5v0d10v5#sbody = 1.515079e-11
m.xm2.msky130_fd_pr__pfet_g5v0d10v5#body = 2.500000e+00
m.xm2.msky130_fd_pr__pfet_g5v0d10v5#dbody = 2.500000e+00
m.xm2.msky130_fd_pr__pfet_g5v0d10v5#sbody = 2.500000e+00
m.xm3.msky130_fd_pr__pfet_g5v0d10v5#body = 2.500000e+00
m.xm3.msky130_fd_pr__pfet_g5v0d10v5#dbody = 2.500000e+00
m.xm3.msky130_fd_pr__pfet_g5v0d10v5#sbody = 2.500000e+00
m.xm4.msky130_fd_pr__pfet_g5v0d10v5#body = 2.500000e+00
m.xm4.msky130_fd_pr__pfet_g5v0d10v5#dbody = 2.500000e+00
m.xm4.msky130_fd_pr__pfet_g5v0d10v5#sbody = 2.500000e+00
m.xm5.msky130_fd_pr__pfet_g5v0d10v5#body = 2.500000e+00
m.xm5.msky130_fd_pr__pfet_g5v0d10v5#dbody = 2.500000e+00
m.xm5.msky130_fd_pr__pfet_g5v0d10v5#sbody = 2.500000e+00
m.xm6.msky130_fd_pr__nfet_g5v0d10v5#body = 1.179203e-11
m.xm6.msky130_fd_pr__nfet_g5v0d10v5#dbody = 2.948006e-11
m.xm6.msky130_fd_pr__nfet_g5v0d10v5#sbody = 5.896018e-12
m.xm7.msky130_fd_pr__pfet_g5v0d10v5#body = 2.500000e+00
m.xm7.msky130_fd_pr__pfet_g5v0d10v5#dbody = 2.500000e+00
m.xm7.msky130_fd_pr__pfet_g5v0d10v5#sbody = 2.500000e+00
m.xm8.msky130_fd_pr__pfet_g5v0d10v5#body = 2.500000e+00
m.xm8.msky130_fd_pr__pfet_g5v0d10v5#dbody = 2.500000e+00
m.xm8.msky130_fd_pr__pfet_g5v0d10v5#sbody = 2.500000e+00
m.xm9.msky130_fd_pr__nfet_g5v0d10v5#body = 1.948316e-11
m.xm9.msky130_fd_pr__nfet_g5v0d10v5#dbody = 4.410969e-11
m.xm9.msky130_fd_pr__nfet_g5v0d10v5#sbody = 1.433977e-11
m.xm10.msky130_fd_pr__nfet_g5v0d10v5#body = 1.928658e-11
m.xm10.msky130_fd_pr__nfet_g5v0d10v5#dbody = 4.361824e-11
m.xm10.msky130_fd_pr__nfet_g5v0d10v5#sbody = 1.424148e-11
m.xm11.msky130_fd_pr__pfet_g5v0d10v5#body = 2.500000e+00
m.xm11.msky130_fd_pr__pfet_g5v0d10v5#dbody = 2.500000e+00
m.xm11.msky130_fd_pr__pfet_g5v0d10v5#sbody = 2.500000e+00
m.xm12.msky130_fd_pr__pfet_g5v0d10v5#body = 2.500000e+00
m.xm12.msky130_fd_pr__pfet_g5v0d10v5#dbody = 2.500000e+00
m.xm12.msky130_fd_pr__pfet_g5v0d10v5#sbody = 2.500000e+00
m.xm13.msky130_fd_pr__nfet_g5v0d10v5#body = 2.297739e-12
m.xm13.msky130_fd_pr__nfet_g5v0d10v5#dbody = 5.744336e-12
m.xm13.msky130_fd_pr__nfet_g5v0d10v5#sbody = 1.148880e-12
m.xm14.msky130_fd_pr__pfet_g5v0d10v5#body = 2.500000e+00
m.xm14.msky130_fd_pr__pfet_g5v0d10v5#dbody = 2.500000e+00
m.xm14.msky130_fd_pr__pfet_g5v0d10v5#sbody = 2.500000e+00
m.xm15.msky130_fd_pr__nfet_g5v0d10v5#body = 1.316201e-15
m.xm15.msky130_fd_pr__nfet_g5v0d10v5#dbody = 3.290439e-15
m.xm15.msky130_fd_pr__nfet_g5v0d10v5#sbody = 6.581650e-16
m.xm16.msky130_fd_pr__nfet_g5v0d10v5#body = 4.553249e-11
m.xm16.msky130_fd_pr__nfet_g5v0d10v5#dbody = 8.527494e-11
m.xm16.msky130_fd_pr__nfet_g5v0d10v5#sbody = 5.132254e-11
m.xm17.msky130_fd_pr__pfet_g5v0d10v5#body = 2.500000e+00
m.xm17.msky130_fd_pr__pfet_g5v0d10v5#dbody = 2.500000e+00
m.xm17.msky130_fd_pr__pfet_g5v0d10v5#sbody = 2.500000e+00
m.xm18.msky130_fd_pr__nfet_g5v0d10v5#body = 1.281935e-11
m.xm18.msky130_fd_pr__nfet_g5v0d10v5#dbody = 3.204835e-11
m.xm18.msky130_fd_pr__nfet_g5v0d10v5#sbody = 6.409685e-12
m.xm19.msky130_fd_pr__nfet_g5v0d10v5#body = 1.892869e-11
m.xm19.msky130_fd_pr__nfet_g5v0d10v5#dbody = 4.160673e-11
m.xm19.msky130_fd_pr__nfet_g5v0d10v5#sbody = 1.517934e-11
m.xm20.msky130_fd_pr__nfet_g5v0d10v5#body = 1.206544e-11
m.xm20.msky130_fd_pr__nfet_g5v0d10v5#dbody = 3.016358e-11
m.xm20.msky130_fd_pr__nfet_g5v0d10v5#sbody = 6.032732e-12
m.xm22.msky130_fd_pr__nfet_g5v0d10v5#body = 2.860211e-12
m.xm22.msky130_fd_pr__nfet_g5v0d10v5#dbody = 7.150522e-12
m.xm22.msky130_fd_pr__nfet_g5v0d10v5#sbody = 1.430110e-12
m.xm24.msky130_fd_pr__pfet_g5v0d10v5#body = 2.500000e+00
m.xm24.msky130_fd_pr__pfet_g5v0d10v5#dbody = 2.500000e+00
m.xm24.msky130_fd_pr__pfet_g5v0d10v5#sbody = 2.500000e+00
m.xm26.msky130_fd_pr__pfet_g5v0d10v5#body = 2.500000e+00
m.xm26.msky130_fd_pr__pfet_g5v0d10v5#dbody = 2.500000e+00
m.xm26.msky130_fd_pr__pfet_g5v0d10v5#sbody = 2.500000e+00
mir = 1.280780e+00
net1 = 7.262664e-01
net2 = 1.012778e-04
net3 = 7.859664e-01
net4 = 2.282522e-01
net5 = 1.285348e+00
net6 = 9.427973e-01
net7 = 7.859336e-01
net8 = 1.358759e+00
net9 = 1.374485e+00
net10 = 1.836887e-01
net11 = 1.025417e+00
net12 = 1.025417e+00
net13 = 0.000000e+00
out = 1.025417e+00
pos = 1.097534e+00
q.xq2.qsky130_fd_pr__pnp_05v5_w0p68l0p68#collcx = 2.181689e-03
q.xq3.qsky130_fd_pr__pnp_05v5_w0p68l0p68#collcx = 2.748374e-04
q.xq4.qsky130_fd_pr__pnp_05v5_w0p68l0p68#collcx = 2.748374e-04
q.xq8.qsky130_fd_pr__pnp_05v5_w0p68l0p68#collcx = 2.748374e-04
q.xq10.qsky130_fd_pr__pnp_05v5_w0p68l0p68#collcx = 2.748374e-04
q.xq12.qsky130_fd_pr__pnp_05v5_w0p68l0p68#collcx = 2.748374e-04
q.xq14.qsky130_fd_pr__pnp_05v5_w0p68l0p68#collcx = 2.748374e-04
q.xq16.qsky130_fd_pr__pnp_05v5_w0p68l0p68#collcx = 2.748374e-04
q.xq18.qsky130_fd_pr__pnp_05v5_w0p68l0p68#collcx = 2.748374e-04
vb = 9.651044e-01
vdd = 2.500000e+00
vs#branch = -1.00333e-01
vt#branch = 0.000000e+00
xc1.a = 0.000000e+00
xc1.b1 = 0.000000e+00
xc3.a = 1.025417e+00
xc3.b1 = 1.025417e+00
xr1.xsky130_fd_pr__res_xhigh_po_0p69.ra = 7.914046e-01
xr2.xsky130_fd_pr__res_xhigh_po_0p69.ra = 7.914375e-01
xr3.xsky130_fd_pr__res_xhigh_po_0p69.ra = 3.785533e-03
xr4.xsky130_fd_pr__res_xhigh_po_0p69.ra = 7.280554e-01
xr5.xsky130_fd_pr__res_xhigh_po_0p69.ra = 3.785364e-03
xr6.xsky130_fd_pr__res_xhigh_po_0p69.ra = 5.806683e-03
xr7.xsky130_fd_pr__res_xhigh_po_0p69.ra = 1.025417e+00
xr8.xsky130_fd_pr__res_xhigh_po_0p69.ra = 1.106356e+00
xr9.xsky130_fd_pr__res_xhigh_po_0p69.ra = 9.107746e-03
Doing analysis at TEMP = 27.000000 and TNOM = 27.000000


No. of Data Rows : 91
Error: no such vector PM
 Reference value :  2.70000e+01Note: Starting true gmin stepping
Trying gmin =   1.0000E-03 Note: One successful gmin step
Trying gmin =   1.0000E-04 Note: One successful gmin step
Trying gmin =   1.0000E-05 Note: One successful gmin step
Trying gmin =   1.0000E-06 Note: One successful gmin step
Trying gmin =   1.0000E-07 Note: One successful gmin step
Trying gmin =   1.0000E-08 Warning: Further gmin increment
Trying gmin =   5.6234E-08 Warning: Further gmin increment
Trying gmin =   8.6596E-08 Warning: Further gmin increment
Trying gmin =   9.6466E-08 Warning: Further gmin increment
Trying gmin =   9.9105E-08 Note: One successful gmin step
Trying gmin =   9.7776E-08 Note: One successful gmin step
Trying gmin =   9.5818E-08 Warning: Further gmin increment
Trying gmin =   9.7283E-08 Error: -1.72239e+157, 2 out of range for ^
Warning: Further gmin increment
Trying gmin =   9.7653E-08 Warning: Further gmin increment
Trying gmin =   9.7746E-08 Note: One successful gmin step
Trying gmin =   9.7699E-08 Warning: Further gmin increment
Trying gmin =   9.7734E-08 Warning: Further gmin increment
Trying gmin =   9.7743E-08 Warning: Last gmin step failed
Warning: True gmin stepping failed
Note: Starting dynamic gmin stepping
Trying gmin =   1.0000E-03 Note: One successful gmin step
Trying gmin =   1.0000E-04 Note: One successful gmin step
Trying gmin =   1.0000E-05 Note: One successful gmin step
Trying gmin =   1.0000E-06 Note: One successful gmin step
Trying gmin =   1.0000E-07 Note: One successful gmin step
Trying gmin =   1.0000E-08 Note: One successful gmin step
Trying gmin =   1.0000E-09 Note: One successful gmin step
Trying gmin =   1.0000E-10 Note: One successful gmin step
Trying gmin =   1.0000E-11 Note: One successful gmin step
Trying gmin =   1.0000E-12 Note: One successful gmin step
Trying gmin =   1.0000E-12 Note: One successful gmin step
Note: Dynamic gmin stepping completed
 Reference value :  2.80000e+00Note: Starting true gmin stepping
Trying gmin =   1.0000E-03 Note: One successful gmin step
Trying gmin =   1.0000E-04 Note: One successful gmin step
Trying gmin =   1.0000E-05 Note: One successful gmin step
Trying gmin =   1.0000E-06 Note: One successful gmin step
Trying gmin =   1.0000E-07 Note: One successful gmin step
Trying gmin =   1.0000E-08 Note: One successful gmin step
Trying gmin =   1.0000E-09 Note: One successful gmin step
Trying gmin =   1.0000E-10 Warning: Further gmin increment
Trying gmin =   5.6234E-10 Warning: Further gmin increment
Trying gmin =   8.6596E-10 Note: One successful gmin step
Trying gmin =   7.4989E-10 Note: One successful gmin step
Trying gmin =   6.0430E-10 Note: One successful gmin step
Trying gmin =   4.3714E-10 Note: One successful gmin step
Trying gmin =   2.6896E-10 Note: One successful gmin step
Trying gmin =   1.2980E-10 Note: One successful gmin step
Trying gmin =   4.3518E-11 Note: One successful gmin step
Trying gmin =   8.4481E-12 Note: One successful gmin step
Trying gmin =   1.0000E-12 Note: One successful gmin step
Note: True gmin stepping completed
Note: Starting true gmin stepping
Trying gmin =   1.0000E-03 Note: One successful gmin step
Trying gmin =   1.0000E-04 Note: One successful gmin step
Trying gmin =   1.0000E-05 Note: One successful gmin step
Trying gmin =   1.0000E-06 Note: One successful gmin step
Trying gmin =   1.0000E-07 Note: One successful gmin step
Trying gmin =   1.0000E-08 Note: One successful gmin step
Trying gmin =   3.1623E-09 Note: One successful gmin step
Trying gmin =   5.6234E-10 Warning: Further gmin increment
Trying gmin =   2.0535E-09 Note: One successful gmin step
Trying gmin =   1.0746E-09 Note: One successful gmin step
Trying gmin =   5.6234E-10 Note: One successful gmin step
Trying gmin =   2.9427E-10 Note: One successful gmin step
Trying gmin =   1.1140E-10 Note: One successful gmin step
Trying gmin =   2.5946E-11 Note: One successful gmin step
Trying gmin =   2.9164E-12 Note: One successful gmin step
Trying gmin =   1.0000E-12 Note: One successful gmin step
Note: True gmin stepping completed
 Reference value :  1.24000e+00
Error: measure  pm  (AT) : out of interval
 meas ac pm find p when vdb(ldo_out)=0 failed!

Doing analysis at TEMP = 27.000000 and TNOM = 27.000000


No. of Data Rows : 91
psrr100             =  -8.037492e+01
psrr100k            =  -2.599354e+01
Doing analysis at TEMP = 27.000000 and TNOM = 27.000000


No. of Data Rows : 86
temp_coeff = 4.466310e+01
Doing analysis at TEMP = 27.000000 and TNOM = 27.000000


No. of Data Rows : 141
vldo_sup_2          =  1.803431e+00
vldo_sup_2_8        =  1.803690e+00
line_reg = 3.237500e-04
Note: No ".plot", ".print", or ".fourier" lines; no simulations run
vin                 =  1.932460e+00
dropout = 1.684600e-01
