 Reference value :  0.00000e+00
No compatibility mode selected!


Circuit: * ldo netlist 

Doing analysis at TEMP = 27.000000 and TNOM = 27.000000


No. of Data Rows : 1
bg_out = 1.100183e+00
inn = 1.147858e+00
inp = 1.147782e+00
l1#branch = 0.000000e+00
ldo_out = 1.808534e+00
m.xm1.msky130_fd_pr__nfet_g5v0d10v5#body = 1.505881e-11
m.xm1.msky130_fd_pr__nfet_g5v0d10v5#dbody = 3.270676e-11
m.xm1.msky130_fd_pr__nfet_g5v0d10v5#sbody = 1.246966e-11
m.xm2.msky130_fd_pr__pfet_g5v0d10v5#body = 2.300000e+00
m.xm2.msky130_fd_pr__pfet_g5v0d10v5#dbody = 2.300000e+00
m.xm2.msky130_fd_pr__pfet_g5v0d10v5#sbody = 2.300000e+00
m.xm3.msky130_fd_pr__pfet_g5v0d10v5#body = 2.300000e+00
m.xm3.msky130_fd_pr__pfet_g5v0d10v5#dbody = 2.300000e+00
m.xm3.msky130_fd_pr__pfet_g5v0d10v5#sbody = 2.300000e+00
m.xm4.msky130_fd_pr__pfet_g5v0d10v5#body = 2.300000e+00
m.xm4.msky130_fd_pr__pfet_g5v0d10v5#dbody = 2.300000e+00
m.xm4.msky130_fd_pr__pfet_g5v0d10v5#sbody = 2.300000e+00
m.xm5.msky130_fd_pr__pfet_g5v0d10v5#body = 2.300000e+00
m.xm5.msky130_fd_pr__pfet_g5v0d10v5#dbody = 2.300000e+00
m.xm5.msky130_fd_pr__pfet_g5v0d10v5#sbody = 2.300000e+00
m.xm6.msky130_fd_pr__nfet_g5v0d10v5#body = 1.226580e-11
m.xm6.msky130_fd_pr__nfet_g5v0d10v5#dbody = 3.066449e-11
m.xm6.msky130_fd_pr__nfet_g5v0d10v5#sbody = 6.132904e-12
m.xm7.msky130_fd_pr__pfet_g5v0d10v5#body = 2.300000e+00
m.xm7.msky130_fd_pr__pfet_g5v0d10v5#dbody = 2.300000e+00
m.xm7.msky130_fd_pr__pfet_g5v0d10v5#sbody = 2.300000e+00
m.xm8.msky130_fd_pr__pfet_g5v0d10v5#body = 2.300000e+00
m.xm8.msky130_fd_pr__pfet_g5v0d10v5#dbody = 2.300000e+00
m.xm8.msky130_fd_pr__pfet_g5v0d10v5#sbody = 2.300000e+00
m.xm9.msky130_fd_pr__nfet_g5v0d10v5#body = 1.580035e-11
m.xm9.msky130_fd_pr__nfet_g5v0d10v5#dbody = 3.571996e-11
m.xm9.msky130_fd_pr__nfet_g5v0d10v5#sbody = 1.168110e-11
m.xm10.msky130_fd_pr__nfet_g5v0d10v5#body = 1.542964e-11
m.xm10.msky130_fd_pr__nfet_g5v0d10v5#dbody = 3.479317e-11
m.xm10.msky130_fd_pr__nfet_g5v0d10v5#sbody = 1.149574e-11
m.xm11.msky130_fd_pr__pfet_g5v0d10v5#body = 2.300000e+00
m.xm11.msky130_fd_pr__pfet_g5v0d10v5#dbody = 2.300000e+00
m.xm11.msky130_fd_pr__pfet_g5v0d10v5#sbody = 2.300000e+00
m.xm12.msky130_fd_pr__pfet_g5v0d10v5#body = 2.300000e+00
m.xm12.msky130_fd_pr__pfet_g5v0d10v5#dbody = 2.300000e+00
m.xm12.msky130_fd_pr__pfet_g5v0d10v5#sbody = 2.300000e+00
m.xm13.msky130_fd_pr__nfet_g5v0d10v5#body = 1.889110e-12
m.xm13.msky130_fd_pr__nfet_g5v0d10v5#dbody = 4.722766e-12
m.xm13.msky130_fd_pr__nfet_g5v0d10v5#sbody = 9.445647e-13
m.xm14.msky130_fd_pr__pfet_g5v0d10v5#body = 2.300000e+00
m.xm14.msky130_fd_pr__pfet_g5v0d10v5#dbody = 2.300000e+00
m.xm14.msky130_fd_pr__pfet_g5v0d10v5#sbody = 2.300000e+00
m.xm15.msky130_fd_pr__nfet_g5v0d10v5#body = 4.183027e-16
m.xm15.msky130_fd_pr__nfet_g5v0d10v5#dbody = 1.045744e-15
m.xm15.msky130_fd_pr__nfet_g5v0d10v5#sbody = 2.091643e-16
m.xm16.msky130_fd_pr__nfet_g5v0d10v5#body = 4.310696e-11
m.xm16.msky130_fd_pr__nfet_g5v0d10v5#dbody = 7.906221e-11
m.xm16.msky130_fd_pr__nfet_g5v0d10v5#sbody = 5.025866e-11
m.xm17.msky130_fd_pr__pfet_g5v0d10v5#body = 2.300000e+00
m.xm17.msky130_fd_pr__pfet_g5v0d10v5#dbody = 2.300000e+00
m.xm17.msky130_fd_pr__pfet_g5v0d10v5#sbody = 2.300000e+00
m.xm18.msky130_fd_pr__nfet_g5v0d10v5#body = 1.785925e-11
m.xm18.msky130_fd_pr__nfet_g5v0d10v5#dbody = 4.464482e-11
m.xm18.msky130_fd_pr__nfet_g5v0d10v5#sbody = 8.929638e-12
m.xm19.msky130_fd_pr__nfet_g5v0d10v5#body = 1.517632e-11
m.xm19.msky130_fd_pr__nfet_g5v0d10v5#dbody = 3.300054e-11
m.xm19.msky130_fd_pr__nfet_g5v0d10v5#sbody = 1.252842e-11
m.xm20.msky130_fd_pr__nfet_g5v0d10v5#body = 1.284160e-11
m.xm20.msky130_fd_pr__nfet_g5v0d10v5#dbody = 3.210398e-11
m.xm20.msky130_fd_pr__nfet_g5v0d10v5#sbody = 6.420812e-12
m.xm22.msky130_fd_pr__nfet_g5v0d10v5#body = 2.472841e-12
m.xm22.msky130_fd_pr__nfet_g5v0d10v5#dbody = 6.182098e-12
m.xm22.msky130_fd_pr__nfet_g5v0d10v5#sbody = 1.236425e-12
m.xm24.msky130_fd_pr__pfet_g5v0d10v5#body = 2.300000e+00
m.xm24.msky130_fd_pr__pfet_g5v0d10v5#dbody = 2.300000e+00
m.xm24.msky130_fd_pr__pfet_g5v0d10v5#sbody = 2.300000e+00
m.xm26.msky130_fd_pr__pfet_g5v0d10v5#body = 2.300000e+00
m.xm26.msky130_fd_pr__pfet_g5v0d10v5#dbody = 2.300000e+00
m.xm26.msky130_fd_pr__pfet_g5v0d10v5#sbody = 2.300000e+00
mir = 1.006745e+00
net1 = 7.317074e-01
net2 = 3.218373e-05
net3 = 7.910910e-01
net4 = 1.972613e-01
net5 = 1.016146e+00
net6 = 9.806973e-01
net7 = 7.910133e-01
net8 = 1.082893e+00
net9 = 1.112550e+00
net10 = 1.509971e-01
net11 = 1.428476e+00
net12 = 1.428476e+00
net13 = 0.000000e+00
out = 1.428476e+00
pos = 1.100468e+00
q.xq2.qsky130_fd_pr__pnp_05v5_w0p68l0p68#collcx = 2.031519e-03
q.xq3.qsky130_fd_pr__pnp_05v5_w0p68l0p68#collcx = 2.576072e-04
q.xq4.qsky130_fd_pr__pnp_05v5_w0p68l0p68#collcx = 2.576072e-04
q.xq8.qsky130_fd_pr__pnp_05v5_w0p68l0p68#collcx = 2.576072e-04
q.xq10.qsky130_fd_pr__pnp_05v5_w0p68l0p68#collcx = 2.576072e-04
q.xq12.qsky130_fd_pr__pnp_05v5_w0p68l0p68#collcx = 2.576072e-04
q.xq14.qsky130_fd_pr__pnp_05v5_w0p68l0p68#collcx = 2.576072e-04
q.xq16.qsky130_fd_pr__pnp_05v5_w0p68l0p68#collcx = 2.576072e-04
q.xq18.qsky130_fd_pr__pnp_05v5_w0p68l0p68#collcx = 2.576072e-04
vb = 1.027196e+00
vdd = 2.300000e+00
vs#branch = -1.76364e-04
vt#branch = 0.000000e+00
xc1.a = 0.000000e+00
xc1.b1 = 0.000000e+00
xc3.a = 1.428476e+00
xc3.b1 = 1.428476e+00
xr1.xsky130_fd_pr__res_xhigh_po_0p69.ra = 7.964974e-01
xr2.xsky130_fd_pr__res_xhigh_po_0p69.ra = 7.965751e-01
xr3.xsky130_fd_pr__res_xhigh_po_0p69.ra = 3.811845e-03
xr4.xsky130_fd_pr__res_xhigh_po_0p69.ra = 7.334857e-01
xr5.xsky130_fd_pr__res_xhigh_po_0p69.ra = 3.811446e-03
xr6.xsky130_fd_pr__res_xhigh_po_0p69.ra = 5.822696e-03
xr7.xsky130_fd_pr__res_xhigh_po_0p69.ra = 1.428476e+00
xr8.xsky130_fd_pr__res_xhigh_po_0p69.ra = 1.109315e+00
xr9.xsky130_fd_pr__res_xhigh_po_0p69.ra = 9.134172e-03
Doing analysis at TEMP = 27.000000 and TNOM = 27.000000


No. of Data Rows : 91
Note: Starting true gmin stepping
Trying gmin =   1.0000E-03 Note: One successful gmin step
Trying gmin =   1.0000E-04 Note: One successful gmin step
Trying gmin =   1.0000E-05 Note: One successful gmin step
Trying gmin =   1.0000E-06 Note: One successful gmin step
Trying gmin =   1.0000E-07 Warning: Further gmin increment
Trying gmin =   5.6234E-07 Note: One successful gmin step
Trying gmin =   2.3714E-07 Note: One successful gmin step
Trying gmin =   6.4938E-08 Warning: Further gmin increment
Trying gmin =   1.7154E-07 Note: One successful gmin step
Trying gmin =   1.0554E-07 Note: One successful gmin step
Trying gmin =   8.2788E-08 Note: One successful gmin step
Trying gmin =   5.7513E-08 Warning: Further gmin increment
Trying gmin =   7.5582E-08 Note: One successful gmin step
Trying gmin =   6.5931E-08 Warning: Further gmin increment
Trying gmin =   7.3044E-08 Warning: Further gmin increment
Trying gmin =   7.4939E-08 Note: One successful gmin step
Trying gmin =   7.3986E-08 Note: One successful gmin step
Trying gmin =   7.2578E-08 Note: One successful gmin step
Trying gmin =   7.0517E-08 Note: One successful gmin step
Trying gmin =   6.7534E-08 Note: One successful gmin step
Trying gmin =   6.3294E-08 Note: One successful gmin step
Trying gmin =   5.7429E-08 Note: One successful gmin step
Trying gmin =   4.9634E-08 Note: One successful gmin step
Trying gmin =   3.9879E-08 Note: One successful gmin step
Trying gmin =   2.8721E-08 Note: One successful gmin step
Trying gmin =   1.7554E-08 Note: One successful gmin step
Trying gmin =   8.3881E-09 Note: One successful gmin step
Trying gmin =   2.7706E-09 Note: One successful gmin step
Trying gmin =   5.2596E-10 Note: One successful gmin step
Trying gmin =   5.2596E-11 Note: One successful gmin step
Trying gmin =   5.2596E-12 Note: One successful gmin step
Trying gmin =   1.0000E-12 Note: One successful gmin step
Note: True gmin stepping completed
 Reference value :  2.80000e+00Note: Starting true gmin stepping
Trying gmin =   1.0000E-03 Note: One successful gmin step
Trying gmin =   1.0000E-04 Note: One successful gmin step
Trying gmin =   1.0000E-05 Note: One successful gmin step
Trying gmin =   1.0000E-06 Note: One successful gmin step
Trying gmin =   1.0000E-07 Note: One successful gmin step
Trying gmin =   1.0000E-08 Note: One successful gmin step
Trying gmin =   1.0000E-09 Warning: Further gmin increment
Trying gmin =   5.6234E-09 Note: One successful gmin step
Trying gmin =   2.3714E-09 Note: One successful gmin step
Trying gmin =   6.4938E-10 Warning: Further gmin increment
Trying gmin =   1.7154E-09 Note: One successful gmin step
Trying gmin =   1.0554E-09 Note: One successful gmin step
Trying gmin =   5.0937E-10 Warning: Further gmin increment
Trying gmin =   8.7970E-10 Note: One successful gmin step
Trying gmin =   6.6940E-10 Warning: Further gmin increment
Trying gmin =   8.2162E-10 Note: One successful gmin step
Trying gmin =   7.4161E-10 Note: One successful gmin step
Trying gmin =   6.3597E-10 Note: One successful gmin step
Trying gmin =   5.0504E-10 Note: One successful gmin step
Trying gmin =   3.5740E-10 Note: One successful gmin step
Trying gmin =   2.1276E-10 Note: One successful gmin step
Trying gmin =   9.7728E-11 Note: One successful gmin step
Trying gmin =   3.0423E-11 Note: One successful gmin step
Trying gmin =   5.2840E-12 Note: One successful gmin step
Trying gmin =   1.0000E-12 Note: One successful gmin step
Note: True gmin stepping completed
 Reference value :  1.38000e+00Note: Starting true gmin stepping
Trying gmin =   1.0000E-03 Note: One successful gmin step
Trying gmin =   1.0000E-04 Note: One successful gmin step
Trying gmin =   1.0000E-05 Note: One successful gmin step
Trying gmin =   1.0000E-06 Note: One successful gmin step
Trying gmin =   1.0000E-07 Note: One successful gmin step
Trying gmin =   1.0000E-08 Warning: Further gmin increment
Trying gmin =   5.6234E-08 Note: One successful gmin step
Trying gmin =   2.3714E-08 Note: One successful gmin step
Trying gmin =   6.4938E-09 Note: One successful gmin step
Trying gmin =   9.3057E-10 Note: One successful gmin step
Trying gmin =   3.5227E-10 Warning: Further gmin increment
Trying gmin =   7.2993E-10 Note: One successful gmin step
Trying gmin =   5.0708E-10 Note: One successful gmin step
Trying gmin =   2.9361E-10 Note: One successful gmin step
Trying gmin =   1.2936E-10 Note: One successful gmin step
Trying gmin =   3.7834E-11 Note: One successful gmin step
Trying gmin =   5.9838E-12 Note: One successful gmin step
Trying gmin =   1.0000E-12 Note: One successful gmin step
Note: True gmin stepping completed
 Reference value :  4.80000e-01pm                  =  6.288851e+01
Doing analysis at TEMP = 27.000000 and TNOM = 27.000000


No. of Data Rows : 91
psrr100             =  -8.544926e+01
psrr100k            =  -2.651132e+01
Doing analysis at TEMP = 27.000000 and TNOM = 27.000000


No. of Data Rows : 86
temp_coeff = 4.396729e+01
Doing analysis at TEMP = 27.000000 and TNOM = 27.000000


No. of Data Rows : 141
vldo_sup_2          =  1.808431e+00
vldo_sup_2_8        =  1.808514e+00
line_reg = 1.037500e-04
Note: No ".plot", ".print", or ".fourier" lines; no simulations run
vin                 =  1.764153e+00
dropout = 1.530000e-04
