 Reference value :  0.00000e+00
No compatibility mode selected!


Circuit: * ldo netlist 

Doing analysis at TEMP = 85.000000 and TNOM = 27.000000


No. of Data Rows : 1
bg_out = 1.095785e+00
inn = 1.058205e+00
inp = 1.058087e+00
l1#branch = 0.000000e+00
ldo_out = 1.801081e+00
m.xm1.msky130_fd_pr__nfet_g5v0d10v5#body = 2.832590e-11
m.xm1.msky130_fd_pr__nfet_g5v0d10v5#dbody = 5.596245e-11
m.xm1.msky130_fd_pr__nfet_g5v0d10v5#sbody = 2.901526e-11
m.xm2.msky130_fd_pr__pfet_g5v0d10v5#body = 2.300000e+00
m.xm2.msky130_fd_pr__pfet_g5v0d10v5#dbody = 2.300000e+00
m.xm2.msky130_fd_pr__pfet_g5v0d10v5#sbody = 2.300000e+00
m.xm3.msky130_fd_pr__pfet_g5v0d10v5#body = 2.300000e+00
m.xm3.msky130_fd_pr__pfet_g5v0d10v5#dbody = 2.300000e+00
m.xm3.msky130_fd_pr__pfet_g5v0d10v5#sbody = 2.300000e+00
m.xm4.msky130_fd_pr__pfet_g5v0d10v5#body = 2.300000e+00
m.xm4.msky130_fd_pr__pfet_g5v0d10v5#dbody = 2.300000e+00
m.xm4.msky130_fd_pr__pfet_g5v0d10v5#sbody = 2.300000e+00
m.xm5.msky130_fd_pr__pfet_g5v0d10v5#body = 2.300000e+00
m.xm5.msky130_fd_pr__pfet_g5v0d10v5#dbody = 2.300000e+00
m.xm5.msky130_fd_pr__pfet_g5v0d10v5#sbody = 2.300000e+00
m.xm6.msky130_fd_pr__nfet_g5v0d10v5#body = 2.047188e-11
m.xm6.msky130_fd_pr__nfet_g5v0d10v5#dbody = 5.117958e-11
m.xm6.msky130_fd_pr__nfet_g5v0d10v5#sbody = 1.023605e-11
m.xm7.msky130_fd_pr__pfet_g5v0d10v5#body = 2.300000e+00
m.xm7.msky130_fd_pr__pfet_g5v0d10v5#dbody = 2.300000e+00
m.xm7.msky130_fd_pr__pfet_g5v0d10v5#sbody = 2.300000e+00
m.xm8.msky130_fd_pr__pfet_g5v0d10v5#body = 2.300000e+00
m.xm8.msky130_fd_pr__pfet_g5v0d10v5#dbody = 2.300000e+00
m.xm8.msky130_fd_pr__pfet_g5v0d10v5#sbody = 2.300000e+00
m.xm9.msky130_fd_pr__nfet_g5v0d10v5#body = 2.647499e-11
m.xm9.msky130_fd_pr__nfet_g5v0d10v5#dbody = 5.438933e-11
m.xm9.msky130_fd_pr__nfet_g5v0d10v5#sbody = 2.503564e-11
m.xm10.msky130_fd_pr__nfet_g5v0d10v5#body = 2.622763e-11
m.xm10.msky130_fd_pr__nfet_g5v0d10v5#dbody = 5.377092e-11
m.xm10.msky130_fd_pr__nfet_g5v0d10v5#sbody = 2.491195e-11
m.xm11.msky130_fd_pr__pfet_g5v0d10v5#body = 2.300000e+00
m.xm11.msky130_fd_pr__pfet_g5v0d10v5#dbody = 2.300000e+00
m.xm11.msky130_fd_pr__pfet_g5v0d10v5#sbody = 2.300000e+00
m.xm12.msky130_fd_pr__pfet_g5v0d10v5#body = 2.300000e+00
m.xm12.msky130_fd_pr__pfet_g5v0d10v5#dbody = 2.300000e+00
m.xm12.msky130_fd_pr__pfet_g5v0d10v5#sbody = 2.300000e+00
m.xm13.msky130_fd_pr__nfet_g5v0d10v5#body = 4.258678e-12
m.xm13.msky130_fd_pr__nfet_g5v0d10v5#dbody = 1.064663e-11
m.xm13.msky130_fd_pr__nfet_g5v0d10v5#sbody = 2.129399e-12
m.xm14.msky130_fd_pr__pfet_g5v0d10v5#body = 2.300000e+00
m.xm14.msky130_fd_pr__pfet_g5v0d10v5#dbody = 2.300000e+00
m.xm14.msky130_fd_pr__pfet_g5v0d10v5#sbody = 2.300000e+00
m.xm15.msky130_fd_pr__nfet_g5v0d10v5#body = 8.507458e-14
m.xm15.msky130_fd_pr__nfet_g5v0d10v5#dbody = 2.126841e-13
m.xm15.msky130_fd_pr__nfet_g5v0d10v5#sbody = 4.253964e-14
m.xm16.msky130_fd_pr__nfet_g5v0d10v5#body = 5.260612e-11
m.xm16.msky130_fd_pr__nfet_g5v0d10v5#dbody = 9.443162e-11
m.xm16.msky130_fd_pr__nfet_g5v0d10v5#sbody = 6.338675e-11
m.xm17.msky130_fd_pr__pfet_g5v0d10v5#body = 2.300000e+00
m.xm17.msky130_fd_pr__pfet_g5v0d10v5#dbody = 2.300000e+00
m.xm17.msky130_fd_pr__pfet_g5v0d10v5#sbody = 2.300000e+00
m.xm18.msky130_fd_pr__nfet_g5v0d10v5#body = 1.434310e-11
m.xm18.msky130_fd_pr__nfet_g5v0d10v5#dbody = 3.585768e-11
m.xm18.msky130_fd_pr__nfet_g5v0d10v5#sbody = 7.171625e-12
m.xm19.msky130_fd_pr__nfet_g5v0d10v5#body = 2.850641e-11
m.xm19.msky130_fd_pr__nfet_g5v0d10v5#dbody = 5.641371e-11
m.xm19.msky130_fd_pr__nfet_g5v0d10v5#sbody = 2.910551e-11
m.xm20.msky130_fd_pr__nfet_g5v0d10v5#body = 1.452872e-11
m.xm20.msky130_fd_pr__nfet_g5v0d10v5#dbody = 3.632172e-11
m.xm20.msky130_fd_pr__nfet_g5v0d10v5#sbody = 7.264434e-12
m.xm22.msky130_fd_pr__nfet_g5v0d10v5#body = 1.070277e-11
m.xm22.msky130_fd_pr__nfet_g5v0d10v5#dbody = 2.675682e-11
m.xm22.msky130_fd_pr__nfet_g5v0d10v5#sbody = 5.351482e-12
m.xm24.msky130_fd_pr__pfet_g5v0d10v5#body = 2.300000e+00
m.xm24.msky130_fd_pr__pfet_g5v0d10v5#dbody = 2.300000e+00
m.xm24.msky130_fd_pr__pfet_g5v0d10v5#sbody = 2.300000e+00
m.xm26.msky130_fd_pr__pfet_g5v0d10v5#body = 2.300000e+00
m.xm26.msky130_fd_pr__pfet_g5v0d10v5#dbody = 2.300000e+00
m.xm26.msky130_fd_pr__pfet_g5v0d10v5#sbody = 2.300000e+00
mir = 1.246838e+00
net1 = 6.284345e-01
net2 = 1.642317e-04
net3 = 7.016646e-01
net4 = 1.713983e-01
net5 = 1.261278e+00
net6 = 9.489596e-01
net7 = 7.015442e-01
net8 = 1.332964e+00
net9 = 1.352753e+00
net10 = 1.799147e-01
net11 = 9.859469e-01
net12 = 9.859469e-01
net13 = 0.000000e+00
out = 9.859469e-01
pos = 1.096000e+00
q.xq2.qsky130_fd_pr__pnp_05v5_w0p68l0p68#collcx = 2.833668e-03
q.xq3.qsky130_fd_pr__pnp_05v5_w0p68l0p68#collcx = 3.575258e-04
q.xq4.qsky130_fd_pr__pnp_05v5_w0p68l0p68#collcx = 3.575258e-04
q.xq8.qsky130_fd_pr__pnp_05v5_w0p68l0p68#collcx = 3.575258e-04
q.xq10.qsky130_fd_pr__pnp_05v5_w0p68l0p68#collcx = 3.575258e-04
q.xq12.qsky130_fd_pr__pnp_05v5_w0p68l0p68#collcx = 3.575258e-04
q.xq14.qsky130_fd_pr__pnp_05v5_w0p68l0p68#collcx = 3.575258e-04
q.xq16.qsky130_fd_pr__pnp_05v5_w0p68l0p68#collcx = 3.575258e-04
q.xq18.qsky130_fd_pr__pnp_05v5_w0p68l0p68#collcx = 3.575258e-04
vb = 1.000796e+00
vdd = 2.300000e+00
vs#branch = -1.00190e-01
vt#branch = 0.000000e+00
xc1.a = 0.000000e+00
xc1.b1 = 0.000000e+00
xc3.a = 9.859469e-01
xc3.b1 = 9.859469e-01
xr1.xsky130_fd_pr__res_xhigh_po_0p69.ra = 7.099612e-01
xr2.xsky130_fd_pr__res_xhigh_po_0p69.ra = 7.100817e-01
xr3.xsky130_fd_pr__res_xhigh_po_0p69.ra = 5.152716e-03
xr4.xsky130_fd_pr__res_xhigh_po_0p69.ra = 6.317964e-01
xr5.xsky130_fd_pr__res_xhigh_po_0p69.ra = 5.151780e-03
xr6.xsky130_fd_pr__res_xhigh_po_0p69.ra = 8.900889e-03
xr7.xsky130_fd_pr__res_xhigh_po_0p69.ra = 9.859469e-01
xr8.xsky130_fd_pr__res_xhigh_po_0p69.ra = 1.109526e+00
xr9.xsky130_fd_pr__res_xhigh_po_0p69.ra = 1.396298e-02
Doing analysis at TEMP = 85.000000 and TNOM = 27.000000


No. of Data Rows : 91
Error: no such vector PM
Note: Starting true gmin stepping
Trying gmin =   1.0000E-03 Note: One successful gmin step
Trying gmin =   1.0000E-04 Note: One successful gmin step
Trying gmin =   1.0000E-05 Note: One successful gmin step
Trying gmin =   1.0000E-06 Warning: Further gmin increment
Trying gmin =   5.6234E-06 Note: One successful gmin step
Trying gmin =   2.3714E-06 Note: One successful gmin step
Trying gmin =   6.4938E-07 Warning: Further gmin increment
Trying gmin =   1.7154E-06 Note: One successful gmin step
Trying gmin =   1.0554E-06 Note: One successful gmin step
Trying gmin =   5.0937E-07 Note: One successful gmin step
Trying gmin =   1.7077E-07 Note: One successful gmin step
Trying gmin =   3.3152E-08 Note: One successful gmin step
Trying gmin =   3.3152E-09 Note: One successful gmin step
Trying gmin =   3.3152E-10 Note: One successful gmin step
Trying gmin =   3.3152E-11 Note: One successful gmin step
Trying gmin =   3.3152E-12 Note: One successful gmin step
Trying gmin =   1.0000E-12 Note: One successful gmin step
Note: True gmin stepping completed
 Reference value :  2.80000e+00Note: Starting true gmin stepping
Trying gmin =   1.0000E-03 Note: One successful gmin step
Trying gmin =   1.0000E-04 Note: One successful gmin step
Trying gmin =   1.0000E-05 Note: One successful gmin step
Trying gmin =   1.0000E-06 Note: One successful gmin step
Trying gmin =   1.0000E-07 Note: One successful gmin step
Trying gmin =   1.0000E-08 Note: One successful gmin step
Trying gmin =   1.0000E-09 Note: One successful gmin step
Trying gmin =   1.0000E-10 Warning: Further gmin increment
Trying gmin =   5.6234E-10 Note: One successful gmin step
Trying gmin =   2.3714E-10 Note: One successful gmin step
Trying gmin =   6.4938E-11 Warning: Further gmin increment
Trying gmin =   1.7154E-10 Note: One successful gmin step
Trying gmin =   1.0554E-10 Note: One successful gmin step
Trying gmin =   5.0937E-11 Note: One successful gmin step
Trying gmin =   1.7077E-11 Note: One successful gmin step
Trying gmin =   3.3152E-12 Note: One successful gmin step
Trying gmin =   1.0000E-12 Note: One successful gmin step
Note: True gmin stepping completed
 Reference value :  1.04000e+00Note: Starting true gmin stepping
Trying gmin =   1.0000E-03 Note: One successful gmin step
Trying gmin =   1.0000E-04 Note: One successful gmin step
Trying gmin =   1.0000E-05 Note: One successful gmin step
Trying gmin =   1.0000E-06 Note: One successful gmin step
Trying gmin =   1.0000E-07 Note: One successful gmin step
Trying gmin =   1.0000E-08 Note: One successful gmin step
Trying gmin =   1.0000E-09 Note: One successful gmin step
Trying gmin =   1.0000E-10 Warning: Further gmin increment
Trying gmin =   5.6234E-10 Note: One successful gmin step
Trying gmin =   3.1623E-10 Note: One successful gmin step
Trying gmin =   1.3335E-10 Warning: Further gmin increment
Trying gmin =   2.5483E-10 Note: One successful gmin step
Trying gmin =   1.8434E-10 Note: One successful gmin step
Trying gmin =   1.1342E-10 Warning: Further gmin increment
Trying gmin =   1.6326E-10 Note: One successful gmin step
Trying gmin =   1.3608E-10 Note: One successful gmin step
Trying gmin =   1.0355E-10 Note: One successful gmin step
Trying gmin =   6.8732E-11 Note: One successful gmin step
Trying gmin =   3.7170E-11 Note: One successful gmin step
Trying gmin =   1.4782E-11 Note: One successful gmin step
Trying gmin =   3.7073E-12 Note: One successful gmin step
Trying gmin =   1.0000E-12 Note: One successful gmin step
Note: True gmin stepping completed
 Reference value :  5.40000e-01
Error: measure  pm  (AT) : out of interval
 meas ac pm find p when vdb(ldo_out)=0 failed!

Doing analysis at TEMP = 85.000000 and TNOM = 27.000000


No. of Data Rows : 91
psrr100             =  -5.143860e+01
psrr100k            =  -2.190484e+01
Doing analysis at TEMP = 85.000000 and TNOM = 27.000000


No. of Data Rows : 86
temp_coeff = 3.569803e+01
Doing analysis at TEMP = 85.000000 and TNOM = 27.000000


No. of Data Rows : 141
vldo_sup_2          =  1.800046e+00
vldo_sup_2_8        =  1.802241e+00
line_reg = 2.743750e-03
Note: No ".plot", ".print", or ".fourier" lines; no simulations run
vin                 =  1.916107e+00
dropout = 1.521070e-01
