 Reference value :  0.00000e+00
No compatibility mode selected!


Circuit: * ldo netlist 

Doing analysis at TEMP = 85.000000 and TNOM = 27.000000


No. of Data Rows : 1
bg_out = 1.200208e+00
inn = 1.146520e+00
inp = 1.146485e+00
l1#branch = 0.000000e+00
ldo_out = 1.805785e+00
m.xm1.msky130_fd_pr__nfet_g5v0d10v5#body = 2.846938e-11
m.xm1.msky130_fd_pr__nfet_g5v0d10v5#dbody = 5.361740e-11
m.xm1.msky130_fd_pr__nfet_g5v0d10v5#sbody = 3.179073e-11
m.xm2.msky130_fd_pr__pfet_g5v0d10v5#body = 2.300000e+00
m.xm2.msky130_fd_pr__pfet_g5v0d10v5#dbody = 2.300000e+00
m.xm2.msky130_fd_pr__pfet_g5v0d10v5#sbody = 2.300000e+00
m.xm3.msky130_fd_pr__pfet_g5v0d10v5#body = 2.300000e+00
m.xm3.msky130_fd_pr__pfet_g5v0d10v5#dbody = 2.300000e+00
m.xm3.msky130_fd_pr__pfet_g5v0d10v5#sbody = 2.300000e+00
m.xm4.msky130_fd_pr__pfet_g5v0d10v5#body = 2.300000e+00
m.xm4.msky130_fd_pr__pfet_g5v0d10v5#dbody = 2.300000e+00
m.xm4.msky130_fd_pr__pfet_g5v0d10v5#sbody = 2.300000e+00
m.xm5.msky130_fd_pr__pfet_g5v0d10v5#body = 2.300000e+00
m.xm5.msky130_fd_pr__pfet_g5v0d10v5#dbody = 2.300000e+00
m.xm5.msky130_fd_pr__pfet_g5v0d10v5#sbody = 2.300000e+00
m.xm6.msky130_fd_pr__nfet_g5v0d10v5#body = 1.979635e-11
m.xm6.msky130_fd_pr__nfet_g5v0d10v5#dbody = 4.949075e-11
m.xm6.msky130_fd_pr__nfet_g5v0d10v5#sbody = 9.898286e-12
m.xm7.msky130_fd_pr__pfet_g5v0d10v5#body = 2.300000e+00
m.xm7.msky130_fd_pr__pfet_g5v0d10v5#dbody = 2.300000e+00
m.xm7.msky130_fd_pr__pfet_g5v0d10v5#sbody = 2.300000e+00
m.xm8.msky130_fd_pr__pfet_g5v0d10v5#body = 2.300000e+00
m.xm8.msky130_fd_pr__pfet_g5v0d10v5#dbody = 2.300000e+00
m.xm8.msky130_fd_pr__pfet_g5v0d10v5#sbody = 2.300000e+00
m.xm9.msky130_fd_pr__nfet_g5v0d10v5#body = 2.665477e-11
m.xm9.msky130_fd_pr__nfet_g5v0d10v5#dbody = 5.182178e-11
m.xm9.msky130_fd_pr__nfet_g5v0d10v5#sbody = 2.814254e-11
m.xm10.msky130_fd_pr__nfet_g5v0d10v5#body = 2.647375e-11
m.xm10.msky130_fd_pr__nfet_g5v0d10v5#dbody = 5.136921e-11
m.xm10.msky130_fd_pr__nfet_g5v0d10v5#sbody = 2.805203e-11
m.xm11.msky130_fd_pr__pfet_g5v0d10v5#body = 2.300000e+00
m.xm11.msky130_fd_pr__pfet_g5v0d10v5#dbody = 2.300000e+00
m.xm11.msky130_fd_pr__pfet_g5v0d10v5#sbody = 2.300000e+00
m.xm12.msky130_fd_pr__pfet_g5v0d10v5#body = 2.300000e+00
m.xm12.msky130_fd_pr__pfet_g5v0d10v5#dbody = 2.300000e+00
m.xm12.msky130_fd_pr__pfet_g5v0d10v5#sbody = 2.300000e+00
m.xm13.msky130_fd_pr__nfet_g5v0d10v5#body = 5.760016e-12
m.xm13.msky130_fd_pr__nfet_g5v0d10v5#dbody = 1.439997e-11
m.xm13.msky130_fd_pr__nfet_g5v0d10v5#sbody = 2.880076e-12
m.xm14.msky130_fd_pr__pfet_g5v0d10v5#body = 2.300000e+00
m.xm14.msky130_fd_pr__pfet_g5v0d10v5#dbody = 2.300000e+00
m.xm14.msky130_fd_pr__pfet_g5v0d10v5#sbody = 2.300000e+00
m.xm15.msky130_fd_pr__nfet_g5v0d10v5#body = 1.281455e-14
m.xm15.msky130_fd_pr__nfet_g5v0d10v5#dbody = 3.203559e-14
m.xm15.msky130_fd_pr__nfet_g5v0d10v5#sbody = 6.408063e-15
m.xm16.msky130_fd_pr__nfet_g5v0d10v5#body = 5.363596e-11
m.xm16.msky130_fd_pr__nfet_g5v0d10v5#dbody = 9.487245e-11
m.xm16.msky130_fd_pr__nfet_g5v0d10v5#sbody = 6.603544e-11
m.xm17.msky130_fd_pr__pfet_g5v0d10v5#body = 2.300000e+00
m.xm17.msky130_fd_pr__pfet_g5v0d10v5#dbody = 2.300000e+00
m.xm17.msky130_fd_pr__pfet_g5v0d10v5#sbody = 2.300000e+00
m.xm18.msky130_fd_pr__nfet_g5v0d10v5#body = 1.821613e-11
m.xm18.msky130_fd_pr__nfet_g5v0d10v5#dbody = 4.554016e-11
m.xm18.msky130_fd_pr__nfet_g5v0d10v5#sbody = 9.108143e-12
m.xm19.msky130_fd_pr__nfet_g5v0d10v5#body = 2.851771e-11
m.xm19.msky130_fd_pr__nfet_g5v0d10v5#dbody = 5.373824e-11
m.xm19.msky130_fd_pr__nfet_g5v0d10v5#sbody = 3.181490e-11
m.xm20.msky130_fd_pr__nfet_g5v0d10v5#body = 1.347333e-11
m.xm20.msky130_fd_pr__nfet_g5v0d10v5#dbody = 3.368324e-11
m.xm20.msky130_fd_pr__nfet_g5v0d10v5#sbody = 6.736739e-12
m.xm22.msky130_fd_pr__nfet_g5v0d10v5#body = 1.207290e-11
m.xm22.msky130_fd_pr__nfet_g5v0d10v5#dbody = 3.018214e-11
m.xm22.msky130_fd_pr__nfet_g5v0d10v5#sbody = 6.036558e-12
m.xm24.msky130_fd_pr__pfet_g5v0d10v5#body = 2.300000e+00
m.xm24.msky130_fd_pr__pfet_g5v0d10v5#dbody = 2.300000e+00
m.xm24.msky130_fd_pr__pfet_g5v0d10v5#sbody = 2.300000e+00
m.xm26.msky130_fd_pr__pfet_g5v0d10v5#body = 2.300000e+00
m.xm26.msky130_fd_pr__pfet_g5v0d10v5#dbody = 2.300000e+00
m.xm26.msky130_fd_pr__pfet_g5v0d10v5#sbody = 2.300000e+00
mir = 1.153130e+00
net1 = 6.299082e-01
net2 = 2.474042e-05
net3 = 7.034374e-01
net4 = 2.801552e-01
net5 = 1.156997e+00
net6 = 8.978809e-01
net7 = 7.034021e-01
net8 = 1.234937e+00
net9 = 1.249419e+00
net10 = 3.022820e-01
net11 = 1.298750e+00
net12 = 1.298750e+00
net13 = 0.000000e+00
out = 1.298750e+00
pos = 1.200374e+00
q.xq2.qsky130_fd_pr__pnp_05v5_w0p68l0p68#collcx = 2.964122e-03
q.xq3.qsky130_fd_pr__pnp_05v5_w0p68l0p68#collcx = 3.740843e-04
q.xq4.qsky130_fd_pr__pnp_05v5_w0p68l0p68#collcx = 3.740843e-04
q.xq8.qsky130_fd_pr__pnp_05v5_w0p68l0p68#collcx = 3.740843e-04
q.xq10.qsky130_fd_pr__pnp_05v5_w0p68l0p68#collcx = 3.740843e-04
q.xq12.qsky130_fd_pr__pnp_05v5_w0p68l0p68#collcx = 3.740843e-04
q.xq14.qsky130_fd_pr__pnp_05v5_w0p68l0p68#collcx = 3.740843e-04
q.xq16.qsky130_fd_pr__pnp_05v5_w0p68l0p68#collcx = 3.740843e-04
q.xq18.qsky130_fd_pr__pnp_05v5_w0p68l0p68#collcx = 3.740843e-04
vb = 9.193288e-01
vdd = 2.300000e+00
vs#branch = -1.01701e-02
vt#branch = 0.000000e+00
xc1.a = 0.000000e+00
xc1.b1 = 0.000000e+00
xc3.a = 1.298750e+00
xc3.b1 = 1.298750e+00
xr1.xsky130_fd_pr__res_xhigh_po_0p69.ra = 7.092176e-01
xr2.xsky130_fd_pr__res_xhigh_po_0p69.ra = 7.092530e-01
xr3.xsky130_fd_pr__res_xhigh_po_0p69.ra = 3.468369e-03
xr4.xsky130_fd_pr__res_xhigh_po_0p69.ra = 6.322877e-01
xr5.xsky130_fd_pr__res_xhigh_po_0p69.ra = 3.468185e-03
xr6.xsky130_fd_pr__res_xhigh_po_0p69.ra = 6.159854e-03
xr7.xsky130_fd_pr__res_xhigh_po_0p69.ra = 1.298750e+00
xr8.xsky130_fd_pr__res_xhigh_po_0p69.ra = 1.210614e+00
xr9.xsky130_fd_pr__res_xhigh_po_0p69.ra = 1.074003e-02
Doing analysis at TEMP = 85.000000 and TNOM = 27.000000


No. of Data Rows : 91
Note: Starting true gmin stepping
Trying gmin =   1.0000E-03 Note: One successful gmin step
Trying gmin =   1.0000E-04 Note: One successful gmin step
Trying gmin =   1.0000E-05 Note: One successful gmin step
Trying gmin =   1.0000E-06 Note: One successful gmin step
Trying gmin =   1.0000E-07 Note: One successful gmin step
Trying gmin =   1.0000E-08 Warning: Further gmin increment
Trying gmin =   5.6234E-08 Warning: Further gmin increment
Trying gmin =   8.6596E-08 Note: One successful gmin step
Trying gmin =   6.9783E-08 Warning: Further gmin increment
Trying gmin =   8.2047E-08 Note: One successful gmin step
Trying gmin =   7.5667E-08 Note: One successful gmin step
Trying gmin =   6.7015E-08 Warning: Further gmin increment
Trying gmin =   7.3404E-08 Note: One successful gmin step
Trying gmin =   7.0137E-08 Warning: Further gmin increment
Trying gmin =   7.2574E-08 Note: One successful gmin step
Trying gmin =   7.1345E-08 Warning: Further gmin increment
Trying gmin =   7.2264E-08 Note: One successful gmin step
Trying gmin =   7.1803E-08 Warning: Further gmin increment
Trying gmin =   7.2149E-08 Warning: Further gmin increment
Trying gmin =   7.2236E-08 Note: One successful gmin step
Trying gmin =   7.2192E-08 Note: One successful gmin step
Trying gmin =   7.2127E-08 Warning: Further gmin increment
Trying gmin =   7.2176E-08 Warning: Further gmin increment
Trying gmin =   7.2188E-08 Warning: Further gmin increment
Trying gmin =   7.2191E-08 Note: One successful gmin step
Trying gmin =   7.2190E-08 Warning: Last gmin step failed
Warning: True gmin stepping failed
Note: Starting dynamic gmin stepping
Trying gmin =   1.0000E-03 Note: One successful gmin step
Trying gmin =   1.0000E-04 Note: One successful gmin step
Trying gmin =   1.0000E-05 Warning: Further gmin increment
Trying gmin =   5.6234E-05 Note: One successful gmin step
Trying gmin =   2.3714E-05 Note: One successful gmin step
Trying gmin =   6.4938E-06 Warning: Further gmin increment
Trying gmin =   1.7154E-05 Note: One successful gmin step
Trying gmin =   1.0554E-05 Warning: Further gmin increment
Trying gmin =   1.5193E-05 Note: One successful gmin step
Trying gmin =   1.2663E-05 Note: One successful gmin step
Trying gmin =   1.0554E-05 Note: One successful gmin step
Trying gmin =   8.0313E-06 Note: One successful gmin step
Trying gmin =   5.3310E-06 Note: One successful gmin step
Trying gmin =   2.8830E-06 Note: One successful gmin step
Trying gmin =   1.1465E-06 Note: One successful gmin step
Trying gmin =   2.8755E-07 Warning: Further gmin increment
Trying gmin =   8.1137E-07 Note: One successful gmin step
Trying gmin =   4.8302E-07 Note: One successful gmin step
Trying gmin =   2.2186E-07 Warning: Further gmin increment
Trying gmin =   3.9764E-07 Note: One successful gmin step
Trying gmin =   2.9702E-07 Warning: Further gmin increment
Trying gmin =   3.6967E-07 Note: One successful gmin step
Trying gmin =   3.3136E-07 Warning: Further gmin increment
Trying gmin =   3.5970E-07 Note: One successful gmin step
Trying gmin =   3.4524E-07 Note: One successful gmin step
Trying gmin =   3.2463E-07 Warning: Further gmin increment
Trying gmin =   3.3997E-07 Note: One successful gmin step
Trying gmin =   3.3221E-07 Warning: Further gmin increment
Trying gmin =   3.3801E-07 Note: One successful gmin step
Trying gmin =   3.3510E-07 Note: One successful gmin step
Trying gmin =   3.3078E-07 Warning: Further gmin increment
Trying gmin =   3.3401E-07 Warning: Further gmin increment
Trying gmin =   3.3483E-07 Note: One successful gmin step
Trying gmin =   3.3442E-07 Warning: Further gmin increment
Trying gmin =   3.3473E-07 Warning: Further gmin increment
Trying gmin =   3.3480E-07 Note: One successful gmin step
Trying gmin =   3.3476E-07 Note: One successful gmin step
Trying gmin =   3.3471E-07 Warning: Further gmin increment
Trying gmin =   3.3475E-07 Note: One successful gmin step
Trying gmin =   3.3473E-07 Warning: Further gmin increment
Trying gmin =   3.3475E-07 Note: One successful gmin step
Trying gmin =   3.3474E-07 Note: One successful gmin step
Trying gmin =   3.3472E-07 Warning: Last gmin step failed
Warning: Dynamic gmin stepping failed
Note: Starting source stepping
Supplies reduced to   0.0000% Note: One successful source step
Supplies reduced to   0.1000% Note: One successful source step
Supplies reduced to   0.2000% Note: One successful source step
Supplies reduced to   0.3500% Note: One successful source step
Supplies reduced to   0.5750% Note: One successful source step
Supplies reduced to   0.9125% Note: One successful source step
Supplies reduced to   1.4188% Note: One successful source step
Supplies reduced to   2.1781% Note: One successful source step
Supplies reduced to   3.3172% Note: One successful source step
Supplies reduced to   5.0258% Note: One successful source step
Supplies reduced to   7.5887% Note: One successful source step
Supplies reduced to  11.4330% Note: One successful source step
Supplies reduced to  17.1995% Note: One successful source step
Supplies reduced to  25.8493% Supplies reduced to  17.1995% Note: One successful source step
Supplies reduced to  18.1995% Note: One successful source step
Supplies reduced to  19.6995% Note: One successful source step
Supplies reduced to  21.9495% Note: One successful source step
Supplies reduced to  25.3245% Note: One successful source step
Supplies reduced to  28.6995% Note: One successful source step
Supplies reduced to  30.3870% Note: One successful source step
Supplies reduced to  32.9183% Note: One successful source step
Supplies reduced to  36.7151% Note: One successful source step
Supplies reduced to  42.4104% Note: One successful source step
Supplies reduced to  50.9534% Note: One successful source step
Supplies reduced to  63.7679% Note: One successful source step
Supplies reduced to  82.9896% Supplies reduced to  63.7679% Note: One successful source step
Supplies reduced to  64.7679% Note: One successful source step
Supplies reduced to  66.2679% Supplies reduced to  64.7679% Note: One successful source step
Supplies reduced to  64.9929% Note: One successful source step
Supplies reduced to  65.3304% Supplies reduced to  64.9929% Note: One successful source step
Supplies reduced to  65.0435% Note: One successful source step
Supplies reduced to  65.1194% Note: One successful source step
Supplies reduced to  65.2333% Supplies reduced to  65.1194% Note: One successful source step
Supplies reduced to  65.1365% Note: One successful source step
Supplies reduced to  65.1621% Supplies reduced to  65.1365% Note: One successful source step
Supplies reduced to  65.1404% Note: One successful source step
Supplies reduced to  65.1461% Supplies reduced to  65.1404% Note: One successful source step
Supplies reduced to  65.1412% Note: One successful source step
Supplies reduced to  65.1425% Note: One successful source step
Supplies reduced to  65.1445% Supplies reduced to  65.1425% Note: One successful source step
Supplies reduced to  65.1428% Note: One successful source step
Supplies reduced to  65.1433% Note: One successful source step
Supplies reduced to  65.1439% Supplies reduced to  65.1433% Note: One successful source step
Supplies reduced to  65.1434% Note: One successful source step
Supplies reduced to  65.1435% Note: One successful source step
Supplies reduced to  65.1437% Note: One successful source step
Supplies reduced to  65.1441% Supplies reduced to  65.1437% Note: One successful source step
Supplies reduced to  65.1438% Warning: source stepping failed
doAnalyses: Too many iterations without convergence

dc simulation(s) aborted
Error(parse.c--checkvalid): vldo_sup_2_8: zero length vector.
Error: RHS "abs((vldo_sup_2_8-vldo_sup_2)/0.8)" invalid
Error(parse.c--checkvalid): line_reg: zero length vector.
Error(parse.c--checkvalid): vin: zero length vector.
Error: RHS "vin-1.764" invalid
Error(parse.c--checkvalid): dropout: zero length vector.
Error: no such vector dropout
Note: No ".plot", ".print", or ".fourier" lines; no simulations run
pm                  =  -7.690484e+01
Doing analysis at TEMP = 85.000000 and TNOM = 27.000000


No. of Data Rows : 91
psrr100             =  -5.074472e+01
psrr100k            =  -2.554532e+01
Doing analysis at TEMP = 85.000000 and TNOM = 27.000000


No. of Data Rows : 86
temp_coeff = 1.317136e+02
Doing analysis at TEMP = 85.000000 and TNOM = 27.000000


Error: measure  vldo_sup_2  (AT) : out of interval
 meas dc vldo_sup_2 find ldo_out at=2 failed!


Error: measure  vldo_sup_2_8  (AT) : out of interval
 meas dc vldo_sup_2_8 find ldo_out at=2.8 failed!


Error: measure  vin  (WHEN) : out of interval
 meas dc vin when v(ldo_out)=1.764 failed!

