 Reference value :  8.50000e+01Note: Starting true gmin stepping
Trying gmin =   1.0000E-03 Note: One successful gmin step
Trying gmin =   1.0000E-04 Note: One successful gmin step
Trying gmin =   1.0000E-05 Note: One successful gmin step
Trying gmin =   1.0000E-06 Warning: Further gmin increment
Trying gmin =   5.6234E-06 Note: One successful gmin step
Trying gmin =   2.3714E-06 Note: One successful gmin step
Trying gmin =   6.4938E-07 Warning: Further gmin increment
Trying gmin =   1.7154E-06 Note: One successful gmin step
Trying gmin =   1.0554E-06 Note: One successful gmin step
Trying gmin =   5.0937E-07 Note: One successful gmin step
Trying gmin =   2.4582E-07 Note: One successful gmin step
Trying gmin =   1.1864E-07 Note: One successful gmin step
Trying gmin =   3.9775E-08 Note: One successful gmin step
Trying gmin =   7.7214E-09 Note: One successful gmin step
Trying gmin =   7.7214E-10 Note: One successful gmin step
Trying gmin =   7.7214E-11 Note: One successful gmin step
Trying gmin =   7.7214E-12 Note: One successful gmin step
Trying gmin =   1.0000E-12 Note: One successful gmin step
Note: True gmin stepping completed
 Reference value :  2.02000e+00Note: Starting true gmin stepping
Trying gmin =   1.0000E-03 Note: One successful gmin step
Trying gmin =   1.0000E-04 Note: One successful gmin step
Trying gmin =   1.0000E-05 Note: One successful gmin step
Trying gmin =   1.0000E-06 Note: One successful gmin step
Trying gmin =   1.0000E-07 Note: One successful gmin step
Trying gmin =   1.0000E-08 Note: One successful gmin step
Trying gmin =   1.0000E-09 Note: One successful gmin step
Trying gmin =   1.0000E-10 Note: One successful gmin step
Trying gmin =   1.0000E-11 Note: One successful gmin step
Trying gmin =   3.1623E-12 Note: One successful gmin step
Trying gmin =   1.0000E-12 Note: One successful gmin step
Note: True gmin stepping completed

No compatibility mode selected!


Circuit: * ldo netlist 

Doing analysis at TEMP = 0.000000 and TNOM = 27.000000


No. of Data Rows : 86
temp_coeff = 5.862796e+01
Doing analysis at TEMP = 0.000000 and TNOM = 27.000000


No. of Data Rows : 141
vldo_sup_2          =  1.808247e+00
vldo_sup_2_8        =  1.810867e+00
line_reg = 3.275000e-03
Note: Starting true gmin stepping
Trying gmin =   1.0000E-03 Note: One successful gmin step
Trying gmin =   1.0000E-04 Note: One successful gmin step
Trying gmin =   1.0000E-05 Note: One successful gmin step
Trying gmin =   1.0000E-06 Note: One successful gmin step
Trying gmin =   1.0000E-07 Note: One successful gmin step
Trying gmin =   3.1623E-08 Note: One successful gmin step
Trying gmin =   5.6234E-09 Warning: Further gmin increment
Trying gmin =   2.0535E-08 Note: One successful gmin step
Trying gmin =   1.0746E-08 Warning: Further gmin increment
Trying gmin =   1.7466E-08 Warning: Further gmin increment
Trying gmin =   1.9721E-08 Warning: Further gmin increment
Trying gmin =   2.0329E-08 Note: One successful gmin step
Trying gmin =   2.0022E-08 Note: One successful gmin step
Trying gmin =   1.9572E-08 Note: One successful gmin step
Trying gmin =   1.8914E-08 Note: One successful gmin step
Trying gmin =   1.7970E-08 Note: One successful gmin step
Trying gmin =   1.6641E-08 Note: One successful gmin step
Trying gmin =   1.4829E-08 Note: One successful gmin step
Trying gmin =   1.2475E-08 Note: One successful gmin step
Trying gmin =   9.6252E-09 Note: One successful gmin step
Trying gmin =   6.5233E-09 Note: One successful gmin step
Trying gmin =   3.6396E-09 Note: One successful gmin step
Trying gmin =   1.5168E-09 Note: One successful gmin step
Trying gmin =   4.0810E-10 Note: One successful gmin step
Trying gmin =   5.6951E-11 Note: One successful gmin step
Trying gmin =   5.6951E-12 Note: One successful gmin step
Trying gmin =   1.0000E-12 Note: One successful gmin step
Note: True gmin stepping completed
 Reference value :  1.00000e+00vin                 =  1.959152e+00
dropout = 1.951520e-01
Doing analysis at TEMP = 0.000000 and TNOM = 27.000000


No. of Data Rows : 91
Error: no such vector PM
Note: Starting true gmin stepping
Trying gmin =   1.0000E-03 Note: One successful gmin step
Trying gmin =   1.0000E-04 Note: One successful gmin step
Trying gmin =   1.0000E-05 Note: One successful gmin step
Trying gmin =   1.0000E-06 Note: One successful gmin step
Trying gmin =   1.0000E-07 Note: One successful gmin step
Trying gmin =   3.1623E-08 Note: One successful gmin step
Trying gmin =   5.6234E-09 Warning: Further gmin increment
Trying gmin =   2.0535E-08 Note: One successful gmin step
Trying gmin =   1.0746E-08 Warning: Further gmin increment
Trying gmin =   1.7466E-08 Warning: Further gmin increment
Trying gmin =   1.9721E-08 Warning: Further gmin increment
Trying gmin =   2.0329E-08 Note: One successful gmin step
Trying gmin =   2.0022E-08 Note: One successful gmin step
Trying gmin =   1.9572E-08 Note: One successful gmin step
Trying gmin =   1.8914E-08 Note: One successful gmin step
Trying gmin =   1.7970E-08 Note: One successful gmin step
Trying gmin =   1.6641E-08 Note: One successful gmin step
Trying gmin =   1.4829E-08 Note: One successful gmin step
Trying gmin =   1.2475E-08 Note: One successful gmin step
Trying gmin =   9.6252E-09 Note: One successful gmin step
Trying gmin =   6.5233E-09 Note: One successful gmin step
Trying gmin =   3.6396E-09 Note: One successful gmin step
Trying gmin =   1.5168E-09 Note: One successful gmin step
Trying gmin =   4.0810E-10 Note: One successful gmin step
Trying gmin =   5.6951E-11 Note: One successful gmin step
Trying gmin =   5.6951E-12 Note: One successful gmin step
Trying gmin =   1.0000E-12 Note: One successful gmin step
Note: True gmin stepping completed
Note: No ".plot", ".print", or ".fourier" lines; no simulations run

Error: measure  pm  (AT) : out of interval
 meas ac pm find p when vdb(ldo_out)=0 failed!

Doing analysis at TEMP = 0.000000 and TNOM = 27.000000


No. of Data Rows : 91
psrr100             =  -7.928916e+01
psrr100k            =  -1.930746e+01
