 Reference value :  0.00000e+00
No compatibility mode selected!


Circuit: * ldo netlist 

Doing analysis at TEMP = 27.000000 and TNOM = 27.000000


No. of Data Rows : 1
bg_out = 1.097436e+00
inn = 1.141815e+00
inp = 1.141758e+00
l1#branch = 0.000000e+00
ldo_out = 1.803823e+00
m.xm1.msky130_fd_pr__nfet_g5v0d10v5#body = 1.320483e-11
m.xm1.msky130_fd_pr__nfet_g5v0d10v5#dbody = 2.611638e-11
m.xm1.msky130_fd_pr__nfet_g5v0d10v5#sbody = 1.349812e-11
m.xm2.msky130_fd_pr__pfet_g5v0d10v5#body = 2.100000e+00
m.xm2.msky130_fd_pr__pfet_g5v0d10v5#dbody = 2.100000e+00
m.xm2.msky130_fd_pr__pfet_g5v0d10v5#sbody = 2.100000e+00
m.xm3.msky130_fd_pr__pfet_g5v0d10v5#body = 2.100000e+00
m.xm3.msky130_fd_pr__pfet_g5v0d10v5#dbody = 2.100000e+00
m.xm3.msky130_fd_pr__pfet_g5v0d10v5#sbody = 2.100000e+00
m.xm4.msky130_fd_pr__pfet_g5v0d10v5#body = 2.100000e+00
m.xm4.msky130_fd_pr__pfet_g5v0d10v5#dbody = 2.100000e+00
m.xm4.msky130_fd_pr__pfet_g5v0d10v5#sbody = 2.100000e+00
m.xm5.msky130_fd_pr__pfet_g5v0d10v5#body = 2.100000e+00
m.xm5.msky130_fd_pr__pfet_g5v0d10v5#dbody = 2.100000e+00
m.xm5.msky130_fd_pr__pfet_g5v0d10v5#sbody = 2.100000e+00
m.xm6.msky130_fd_pr__nfet_g5v0d10v5#body = 1.114976e-11
m.xm6.msky130_fd_pr__nfet_g5v0d10v5#dbody = 2.787440e-11
m.xm6.msky130_fd_pr__nfet_g5v0d10v5#sbody = 5.574885e-12
m.xm7.msky130_fd_pr__pfet_g5v0d10v5#body = 2.100000e+00
m.xm7.msky130_fd_pr__pfet_g5v0d10v5#dbody = 2.100000e+00
m.xm7.msky130_fd_pr__pfet_g5v0d10v5#sbody = 2.100000e+00
m.xm8.msky130_fd_pr__pfet_g5v0d10v5#body = 2.100000e+00
m.xm8.msky130_fd_pr__pfet_g5v0d10v5#dbody = 2.100000e+00
m.xm8.msky130_fd_pr__pfet_g5v0d10v5#sbody = 2.100000e+00
m.xm9.msky130_fd_pr__nfet_g5v0d10v5#body = 1.384861e-11
m.xm9.msky130_fd_pr__nfet_g5v0d10v5#dbody = 2.882224e-11
m.xm9.msky130_fd_pr__nfet_g5v0d10v5#sbody = 1.272358e-11
m.xm10.msky130_fd_pr__nfet_g5v0d10v5#body = 1.367430e-11
m.xm10.msky130_fd_pr__nfet_g5v0d10v5#dbody = 2.838648e-11
m.xm10.msky130_fd_pr__nfet_g5v0d10v5#sbody = 1.263643e-11
m.xm11.msky130_fd_pr__pfet_g5v0d10v5#body = 2.100000e+00
m.xm11.msky130_fd_pr__pfet_g5v0d10v5#dbody = 2.100000e+00
m.xm11.msky130_fd_pr__pfet_g5v0d10v5#sbody = 2.100000e+00
m.xm12.msky130_fd_pr__pfet_g5v0d10v5#body = 2.100000e+00
m.xm12.msky130_fd_pr__pfet_g5v0d10v5#dbody = 2.100000e+00
m.xm12.msky130_fd_pr__pfet_g5v0d10v5#sbody = 2.100000e+00
m.xm13.msky130_fd_pr__nfet_g5v0d10v5#body = 2.898280e-12
m.xm13.msky130_fd_pr__nfet_g5v0d10v5#dbody = 7.245690e-12
m.xm13.msky130_fd_pr__nfet_g5v0d10v5#sbody = 1.449151e-12
m.xm14.msky130_fd_pr__pfet_g5v0d10v5#body = 2.100000e+00
m.xm14.msky130_fd_pr__pfet_g5v0d10v5#dbody = 2.100000e+00
m.xm14.msky130_fd_pr__pfet_g5v0d10v5#sbody = 2.100000e+00
m.xm15.msky130_fd_pr__nfet_g5v0d10v5#body = 1.352675e-17
m.xm15.msky130_fd_pr__nfet_g5v0d10v5#dbody = 3.381584e-17
m.xm15.msky130_fd_pr__nfet_g5v0d10v5#sbody = 6.764424e-18
m.xm16.msky130_fd_pr__nfet_g5v0d10v5#body = 4.053132e-11
m.xm16.msky130_fd_pr__nfet_g5v0d10v5#dbody = 7.277429e-11
m.xm16.msky130_fd_pr__nfet_g5v0d10v5#sbody = 4.881966e-11
m.xm17.msky130_fd_pr__pfet_g5v0d10v5#body = 2.100000e+00
m.xm17.msky130_fd_pr__pfet_g5v0d10v5#dbody = 2.100000e+00
m.xm17.msky130_fd_pr__pfet_g5v0d10v5#sbody = 2.100000e+00
m.xm18.msky130_fd_pr__nfet_g5v0d10v5#body = 1.110592e-11
m.xm18.msky130_fd_pr__nfet_g5v0d10v5#dbody = 2.776478e-11
m.xm18.msky130_fd_pr__nfet_g5v0d10v5#sbody = 5.552972e-12
m.xm19.msky130_fd_pr__nfet_g5v0d10v5#body = 1.326921e-11
m.xm19.msky130_fd_pr__nfet_g5v0d10v5#dbody = 2.627733e-11
m.xm19.msky130_fd_pr__nfet_g5v0d10v5#sbody = 1.353031e-11
m.xm20.msky130_fd_pr__nfet_g5v0d10v5#body = 1.106556e-11
m.xm20.msky130_fd_pr__nfet_g5v0d10v5#dbody = 2.766387e-11
m.xm20.msky130_fd_pr__nfet_g5v0d10v5#sbody = 5.532790e-12
m.xm22.msky130_fd_pr__nfet_g5v0d10v5#body = 3.450564e-12
m.xm22.msky130_fd_pr__nfet_g5v0d10v5#dbody = 8.626404e-12
m.xm22.msky130_fd_pr__nfet_g5v0d10v5#sbody = 1.725287e-12
m.xm24.msky130_fd_pr__pfet_g5v0d10v5#body = 2.100000e+00
m.xm24.msky130_fd_pr__pfet_g5v0d10v5#dbody = 2.100000e+00
m.xm24.msky130_fd_pr__pfet_g5v0d10v5#sbody = 2.100000e+00
m.xm26.msky130_fd_pr__pfet_g5v0d10v5#body = 2.100000e+00
m.xm26.msky130_fd_pr__pfet_g5v0d10v5#dbody = 2.100000e+00
m.xm26.msky130_fd_pr__pfet_g5v0d10v5#sbody = 2.100000e+00
mir = 7.802135e-01
net1 = 7.262528e-01
net2 = 1.040860e-06
net3 = 7.859489e-01
net4 = 2.754828e-01
net5 = 7.853637e-01
net6 = 8.914185e-01
net7 = 7.858905e-01
net8 = 8.617366e-01
net9 = 8.756810e-01
net10 = 2.317343e-01
net11 = 8.883453e-01
net12 = 8.883453e-01
net13 = 0.000000e+00
out = 8.883453e-01
pos = 1.097602e+00
q.xq2.qsky130_fd_pr__pnp_05v5_w0p68l0p68#collcx = 2.180469e-03
q.xq3.qsky130_fd_pr__pnp_05v5_w0p68l0p68#collcx = 2.747016e-04
q.xq4.qsky130_fd_pr__pnp_05v5_w0p68l0p68#collcx = 2.747016e-04
q.xq8.qsky130_fd_pr__pnp_05v5_w0p68l0p68#collcx = 2.747016e-04
q.xq10.qsky130_fd_pr__pnp_05v5_w0p68l0p68#collcx = 2.747016e-04
q.xq12.qsky130_fd_pr__pnp_05v5_w0p68l0p68#collcx = 2.747016e-04
q.xq14.qsky130_fd_pr__pnp_05v5_w0p68l0p68#collcx = 2.747016e-04
q.xq16.qsky130_fd_pr__pnp_05v5_w0p68l0p68#collcx = 2.747016e-04
q.xq18.qsky130_fd_pr__pnp_05v5_w0p68l0p68#collcx = 2.747016e-04
vb = 8.851161e-01
vdd = 2.100000e+00
vs#branch = -1.01485e-02
vt#branch = 0.000000e+00
xc1.a = 0.000000e+00
xc1.b1 = 0.000000e+00
xc3.a = 8.883453e-01
xc3.b1 = 8.883453e-01
xr1.xsky130_fd_pr__res_xhigh_po_0p69.ra = 7.913604e-01
xr2.xsky130_fd_pr__res_xhigh_po_0p69.ra = 7.914188e-01
xr3.xsky130_fd_pr__res_xhigh_po_0p69.ra = 3.785443e-03
xr4.xsky130_fd_pr__res_xhigh_po_0p69.ra = 7.280410e-01
xr5.xsky130_fd_pr__res_xhigh_po_0p69.ra = 3.785143e-03
xr6.xsky130_fd_pr__res_xhigh_po_0p69.ra = 5.806919e-03
xr7.xsky130_fd_pr__res_xhigh_po_0p69.ra = 8.883453e-01
xr8.xsky130_fd_pr__res_xhigh_po_0p69.ra = 1.106425e+00
xr9.xsky130_fd_pr__res_xhigh_po_0p69.ra = 9.108358e-03
Doing analysis at TEMP = 27.000000 and TNOM = 27.000000


No. of Data Rows : 91
Error: no such vector PM
Note: Starting true gmin stepping
Trying gmin =   1.0000E-03 Note: One successful gmin step
Trying gmin =   1.0000E-04 Note: One successful gmin step
Trying gmin =   1.0000E-05 Note: One successful gmin step
Trying gmin =   1.0000E-06 Note: One successful gmin step
Trying gmin =   1.0000E-07 Note: One successful gmin step
Trying gmin =   1.0000E-08 Warning: Further gmin increment
Trying gmin =   5.6234E-08 Note: One successful gmin step
Trying gmin =   2.3714E-08 Warning: Further gmin increment
Trying gmin =   4.5316E-08 Note: One successful gmin step
Trying gmin =   3.2781E-08 Warning: Further gmin increment
Trying gmin =   4.1792E-08 Note: One successful gmin step
Trying gmin =   3.7013E-08 Note: One successful gmin step
Trying gmin =   3.0850E-08 Note: One successful gmin step
Trying gmin =   2.3475E-08 Note: One successful gmin step
Trying gmin =   1.5582E-08 Note: One successful gmin step
Trying gmin =   8.4267E-09 Note: One successful gmin step
Trying gmin =   3.3513E-09 Note: One successful gmin step
Trying gmin =   8.4049E-10 Note: One successful gmin step
Trying gmin =   1.0556E-10 Note: One successful gmin step
Trying gmin =   1.0556E-11 Note: One successful gmin step
Trying gmin =   1.0556E-12 Note: One successful gmin step
Trying gmin =   1.0000E-12 Note: One successful gmin step
Note: True gmin stepping completed
 Reference value :  1.48000e+00Note: Starting true gmin stepping
Trying gmin =   1.0000E-03 Note: One successful gmin step
Trying gmin =   1.0000E-04 Note: One successful gmin step
Trying gmin =   1.0000E-05 Note: One successful gmin step
Trying gmin =   1.0000E-06 Note: One successful gmin step
Trying gmin =   1.0000E-07 Note: One successful gmin step
Trying gmin =   1.0000E-08 Warning: Further gmin increment
Trying gmin =   5.6234E-08 Note: One successful gmin step
Trying gmin =   2.3714E-08 Warning: Further gmin increment
Trying gmin =   4.5316E-08 Note: One successful gmin step
Trying gmin =   3.2781E-08 Note: One successful gmin step
Trying gmin =   2.0169E-08 Note: One successful gmin step
Trying gmin =   9.7338E-09 Note: One successful gmin step
Trying gmin =   3.2634E-09 Note: One successful gmin step
Trying gmin =   6.3352E-10 Note: One successful gmin step
Trying gmin =   6.3352E-11 Note: One successful gmin step
Trying gmin =   6.3352E-12 Note: One successful gmin step
Trying gmin =   1.0000E-12 Note: One successful gmin step
Note: True gmin stepping completed

Error: measure  pm  (AT) : out of interval
 meas ac pm find p when vdb(ldo_out)=0 failed!

Doing analysis at TEMP = 27.000000 and TNOM = 27.000000


No. of Data Rows : 91
psrr100             =  -6.891083e+01
psrr100k            =  -2.669092e+01
Doing analysis at TEMP = 27.000000 and TNOM = 27.000000


No. of Data Rows : 86
temp_coeff = 3.828803e+01
Doing analysis at TEMP = 27.000000 and TNOM = 27.000000


No. of Data Rows : 141
vldo_sup_2          =  1.803747e+00
vldo_sup_2_8        =  1.803769e+00
line_reg = 2.750000e-05
Note: No ".plot", ".print", or ".fourier" lines; no simulations run
vin                 =  1.786369e+00
dropout = 2.236900e-02
