 Reference value :  0.00000e+00
No compatibility mode selected!


Circuit: * ldo netlist 

Doing analysis at TEMP = 85.000000 and TNOM = 27.000000


No. of Data Rows : 1
bg_out = 1.194432e+00
inn = 1.137351e+00
inp = 1.137335e+00
l1#branch = 0.000000e+00
ldo_out = 1.796965e+00
m.xm1.msky130_fd_pr__nfet_g5v0d10v5#body = 2.962687e-11
m.xm1.msky130_fd_pr__nfet_g5v0d10v5#dbody = 5.580709e-11
m.xm1.msky130_fd_pr__nfet_g5v0d10v5#sbody = 3.307352e-11
m.xm2.msky130_fd_pr__pfet_g5v0d10v5#body = 2.300000e+00
m.xm2.msky130_fd_pr__pfet_g5v0d10v5#dbody = 2.300000e+00
m.xm2.msky130_fd_pr__pfet_g5v0d10v5#sbody = 2.300000e+00
m.xm3.msky130_fd_pr__pfet_g5v0d10v5#body = 2.300000e+00
m.xm3.msky130_fd_pr__pfet_g5v0d10v5#dbody = 2.300000e+00
m.xm3.msky130_fd_pr__pfet_g5v0d10v5#sbody = 2.300000e+00
m.xm4.msky130_fd_pr__pfet_g5v0d10v5#body = 2.300000e+00
m.xm4.msky130_fd_pr__pfet_g5v0d10v5#dbody = 2.300000e+00
m.xm4.msky130_fd_pr__pfet_g5v0d10v5#sbody = 2.300000e+00
m.xm5.msky130_fd_pr__pfet_g5v0d10v5#body = 2.300000e+00
m.xm5.msky130_fd_pr__pfet_g5v0d10v5#dbody = 2.300000e+00
m.xm5.msky130_fd_pr__pfet_g5v0d10v5#sbody = 2.300000e+00
m.xm6.msky130_fd_pr__nfet_g5v0d10v5#body = 1.928652e-11
m.xm6.msky130_fd_pr__nfet_g5v0d10v5#dbody = 4.821618e-11
m.xm6.msky130_fd_pr__nfet_g5v0d10v5#sbody = 9.643371e-12
m.xm7.msky130_fd_pr__pfet_g5v0d10v5#body = 2.300000e+00
m.xm7.msky130_fd_pr__pfet_g5v0d10v5#dbody = 2.300000e+00
m.xm7.msky130_fd_pr__pfet_g5v0d10v5#sbody = 2.300000e+00
m.xm8.msky130_fd_pr__pfet_g5v0d10v5#body = 2.300000e+00
m.xm8.msky130_fd_pr__pfet_g5v0d10v5#dbody = 2.300000e+00
m.xm8.msky130_fd_pr__pfet_g5v0d10v5#sbody = 2.300000e+00
m.xm9.msky130_fd_pr__nfet_g5v0d10v5#body = 2.783237e-11
m.xm9.msky130_fd_pr__nfet_g5v0d10v5#dbody = 5.393992e-11
m.xm9.msky130_fd_pr__nfet_g5v0d10v5#sbody = 2.955719e-11
m.xm10.msky130_fd_pr__nfet_g5v0d10v5#body = 2.774526e-11
m.xm10.msky130_fd_pr__nfet_g5v0d10v5#dbody = 5.372215e-11
m.xm10.msky130_fd_pr__nfet_g5v0d10v5#sbody = 2.951364e-11
m.xm11.msky130_fd_pr__pfet_g5v0d10v5#body = 2.300000e+00
m.xm11.msky130_fd_pr__pfet_g5v0d10v5#dbody = 2.300000e+00
m.xm11.msky130_fd_pr__pfet_g5v0d10v5#sbody = 2.300000e+00
m.xm12.msky130_fd_pr__pfet_g5v0d10v5#body = 2.300000e+00
m.xm12.msky130_fd_pr__pfet_g5v0d10v5#dbody = 2.300000e+00
m.xm12.msky130_fd_pr__pfet_g5v0d10v5#sbody = 2.300000e+00
m.xm13.msky130_fd_pr__nfet_g5v0d10v5#body = 6.172822e-12
m.xm13.msky130_fd_pr__nfet_g5v0d10v5#dbody = 1.543199e-11
m.xm13.msky130_fd_pr__nfet_g5v0d10v5#sbody = 3.086479e-12
m.xm14.msky130_fd_pr__pfet_g5v0d10v5#body = 2.300000e+00
m.xm14.msky130_fd_pr__pfet_g5v0d10v5#dbody = 2.300000e+00
m.xm14.msky130_fd_pr__pfet_g5v0d10v5#sbody = 2.300000e+00
m.xm15.msky130_fd_pr__nfet_g5v0d10v5#body = 1.678435e-14
m.xm15.msky130_fd_pr__nfet_g5v0d10v5#dbody = 4.195954e-14
m.xm15.msky130_fd_pr__nfet_g5v0d10v5#sbody = 8.393494e-15
m.xm16.msky130_fd_pr__nfet_g5v0d10v5#body = 5.346950e-11
m.xm16.msky130_fd_pr__nfet_g5v0d10v5#dbody = 9.473735e-11
m.xm16.msky130_fd_pr__nfet_g5v0d10v5#sbody = 6.567114e-11
m.xm17.msky130_fd_pr__pfet_g5v0d10v5#body = 2.300000e+00
m.xm17.msky130_fd_pr__pfet_g5v0d10v5#dbody = 2.300000e+00
m.xm17.msky130_fd_pr__pfet_g5v0d10v5#sbody = 2.300000e+00
m.xm18.msky130_fd_pr__nfet_g5v0d10v5#body = 1.388944e-11
m.xm18.msky130_fd_pr__nfet_g5v0d10v5#dbody = 3.472352e-11
m.xm18.msky130_fd_pr__nfet_g5v0d10v5#sbody = 6.944794e-12
m.xm19.msky130_fd_pr__nfet_g5v0d10v5#body = 2.964955e-11
m.xm19.msky130_fd_pr__nfet_g5v0d10v5#dbody = 5.586379e-11
m.xm19.msky130_fd_pr__nfet_g5v0d10v5#sbody = 3.308486e-11
m.xm20.msky130_fd_pr__nfet_g5v0d10v5#body = 1.269514e-11
m.xm20.msky130_fd_pr__nfet_g5v0d10v5#dbody = 3.173776e-11
m.xm20.msky130_fd_pr__nfet_g5v0d10v5#sbody = 6.347642e-12
m.xm22.msky130_fd_pr__nfet_g5v0d10v5#body = 1.242535e-11
m.xm22.msky130_fd_pr__nfet_g5v0d10v5#dbody = 3.106326e-11
m.xm22.msky130_fd_pr__nfet_g5v0d10v5#sbody = 6.212783e-12
m.xm24.msky130_fd_pr__pfet_g5v0d10v5#body = 2.300000e+00
m.xm24.msky130_fd_pr__pfet_g5v0d10v5#dbody = 2.300000e+00
m.xm24.msky130_fd_pr__pfet_g5v0d10v5#sbody = 2.300000e+00
m.xm26.msky130_fd_pr__pfet_g5v0d10v5#body = 2.300000e+00
m.xm26.msky130_fd_pr__pfet_g5v0d10v5#dbody = 2.300000e+00
m.xm26.msky130_fd_pr__pfet_g5v0d10v5#sbody = 2.300000e+00
mir = 1.219642e+00
net1 = 6.225834e-01
net2 = 3.245725e-05
net3 = 6.963192e-01
net4 = 3.103361e-01
net5 = 1.221456e+00
net6 = 8.591691e-01
net7 = 6.963027e-01
net8 = 1.305699e+00
net9 = 1.312667e+00
net10 = 3.373691e-01
net11 = 9.546920e-01
net12 = 9.546920e-01
net13 = 0.000000e+00
out = 9.546920e-01
pos = 1.194513e+00
q.xq2.qsky130_fd_pr__pnp_05v5_w0p68l0p68#collcx = 3.026369e-03
q.xq3.qsky130_fd_pr__pnp_05v5_w0p68l0p68#collcx = 3.807680e-04
q.xq4.qsky130_fd_pr__pnp_05v5_w0p68l0p68#collcx = 3.807680e-04
q.xq8.qsky130_fd_pr__pnp_05v5_w0p68l0p68#collcx = 3.807680e-04
q.xq10.qsky130_fd_pr__pnp_05v5_w0p68l0p68#collcx = 3.807680e-04
q.xq12.qsky130_fd_pr__pnp_05v5_w0p68l0p68#collcx = 3.807680e-04
q.xq14.qsky130_fd_pr__pnp_05v5_w0p68l0p68#collcx = 3.807680e-04
q.xq16.qsky130_fd_pr__pnp_05v5_w0p68l0p68#collcx = 3.807680e-04
q.xq18.qsky130_fd_pr__pnp_05v5_w0p68l0p68#collcx = 3.807680e-04
vb = 8.591479e-01
vdd = 2.300000e+00
vs#branch = -9.99689e-02
vt#branch = 0.000000e+00
xc1.a = 0.000000e+00
xc1.b1 = 0.000000e+00
xc3.a = 9.546920e-01
xc3.b1 = 9.546920e-01
xr1.xsky130_fd_pr__res_xhigh_po_0p69.ra = 7.020905e-01
xr2.xsky130_fd_pr__res_xhigh_po_0p69.ra = 7.021070e-01
xr3.xsky130_fd_pr__res_xhigh_po_0p69.ra = 3.431256e-03
xr4.xsky130_fd_pr__res_xhigh_po_0p69.ra = 6.249702e-01
xr5.xsky130_fd_pr__res_xhigh_po_0p69.ra = 3.431171e-03
xr6.xsky130_fd_pr__res_xhigh_po_0p69.ra = 6.127575e-03
xr7.xsky130_fd_pr__res_xhigh_po_0p69.ra = 9.546920e-01
xr8.xsky130_fd_pr__res_xhigh_po_0p69.ra = 1.204700e+00
xr9.xsky130_fd_pr__res_xhigh_po_0p69.ra = 1.068294e-02
Doing analysis at TEMP = 85.000000 and TNOM = 27.000000


No. of Data Rows : 91
Note: Starting true gmin stepping
Trying gmin =   1.0000E-03 Note: One successful gmin step
Trying gmin =   1.0000E-04 Note: One successful gmin step
Trying gmin =   1.0000E-05 Note: One successful gmin step
Trying gmin =   1.0000E-06 Note: One successful gmin step
Trying gmin =   1.0000E-07 Note: One successful gmin step
Trying gmin =   1.0000E-08 Warning: Further gmin increment
Trying gmin =   5.6234E-08 Note: One successful gmin step
Trying gmin =   2.3714E-08 Warning: Further gmin increment
Trying gmin =   4.5316E-08 Warning: Further gmin increment
Trying gmin =   5.3280E-08 Warning: Further gmin increment
Trying gmin =   5.5481E-08 Warning: Further gmin increment
Trying gmin =   5.6045E-08 Warning: Further gmin increment
Trying gmin =   5.6187E-08 Note: One successful gmin step
Trying gmin =   5.6116E-08 Warning: Further gmin increment
Trying gmin =   5.6169E-08 Note: One successful gmin step
Trying gmin =   5.6142E-08 Note: One successful gmin step
Trying gmin =   5.6102E-08 Warning: Further gmin increment
Trying gmin =   5.6132E-08 Warning: Further gmin increment
Trying gmin =   5.6140E-08 Note: One successful gmin step
Trying gmin =   5.6136E-08 Note: One successful gmin step
Trying gmin =   5.6130E-08 Warning: Further gmin increment
Trying gmin =   5.6135E-08 Note: One successful gmin step
Trying gmin =   5.6133E-08 Warning: Last gmin step failed
Warning: True gmin stepping failed
Note: Starting dynamic gmin stepping
Trying gmin =   1.0000E-03 Note: One successful gmin step
Trying gmin =   1.0000E-04 Note: One successful gmin step
Trying gmin =   1.0000E-05 Warning: Further gmin increment
Trying gmin =   5.6234E-05 Note: One successful gmin step
Trying gmin =   2.3714E-05 Note: One successful gmin step
Trying gmin =   6.4938E-06 Note: One successful gmin step
Trying gmin =   9.3057E-07 Warning: Further gmin increment
Trying gmin =   3.9954E-06 Note: One successful gmin step
Trying gmin =   1.9282E-06 Note: One successful gmin step
Trying gmin =   6.4647E-07 Note: One successful gmin step
Trying gmin =   1.2550E-07 Warning: Further gmin increment
Trying gmin =   4.2911E-07 Note: One successful gmin step
Trying gmin =   2.3206E-07 Warning: Further gmin increment
Trying gmin =   3.6798E-07 Note: One successful gmin step
Trying gmin =   2.9222E-07 Note: One successful gmin step
Trying gmin =   2.0680E-07 Warning: Further gmin increment
Trying gmin =   2.6802E-07 Note: One successful gmin step
Trying gmin =   2.3543E-07 Warning: Further gmin increment
Trying gmin =   2.5947E-07 Note: One successful gmin step
Trying gmin =   2.4716E-07 Warning: Further gmin increment
Trying gmin =   2.5634E-07 Warning: Further gmin increment
Trying gmin =   2.5869E-07 Note: One successful gmin step
Trying gmin =   2.5751E-07 Warning: Further gmin increment
Trying gmin =   2.5839E-07 Note: One successful gmin step
Trying gmin =   2.5795E-07 Warning: Further gmin increment
Trying gmin =   2.5828E-07 Note: One successful gmin step
Trying gmin =   2.5812E-07 Warning: Further gmin increment
Trying gmin =   2.5824E-07 Note: One successful gmin step
Trying gmin =   2.5818E-07 Warning: Further gmin increment
Trying gmin =   2.5822E-07 Note: One successful gmin step
Trying gmin =   2.5820E-07 Note: One successful gmin step
Trying gmin =   2.5817E-07 Warning: Further gmin increment
Trying gmin =   2.5819E-07 Warning: Last gmin step failed
Warning: Dynamic gmin stepping failed
Note: Starting source stepping
Supplies reduced to   0.0000% Note: One successful source step
Supplies reduced to   0.1000% Note: One successful source step
Supplies reduced to   0.2000% Note: One successful source step
Supplies reduced to   0.3500% Note: One successful source step
Supplies reduced to   0.5750% Note: One successful source step
Supplies reduced to   0.9125% Note: One successful source step
Supplies reduced to   1.4188% Note: One successful source step
Supplies reduced to   2.1781% Note: One successful source step
Supplies reduced to   3.3172% Note: One successful source step
Supplies reduced to   5.0258% Note: One successful source step
Supplies reduced to   7.5887% Note: One successful source step
Supplies reduced to  11.4330% Note: One successful source step
Supplies reduced to  17.1995% Note: One successful source step
Supplies reduced to  25.8493% Note: One successful source step
Supplies reduced to  38.8239% Supplies reduced to  25.8493% Note: One successful source step
Supplies reduced to  26.8493% Note: One successful source step
Supplies reduced to  28.3493% Note: One successful source step
Supplies reduced to  30.5993% Note: One successful source step
Supplies reduced to  33.9743% Note: One successful source step
Supplies reduced to  39.0368% Supplies reduced to  33.9743% Note: One successful source step
Supplies reduced to  34.7336% Note: One successful source step
Supplies reduced to  35.8727% Note: One successful source step
Supplies reduced to  37.5813% Note: One successful source step
Supplies reduced to  40.1442% Note: One successful source step
Supplies reduced to  43.9885% Note: One successful source step
Supplies reduced to  49.7550% Note: One successful source step
Supplies reduced to  58.4048% Note: One successful source step
Supplies reduced to  71.3794% Note: One successful source step
Supplies reduced to  90.8414% Supplies reduced to  71.3794% Note: One successful source step
Supplies reduced to  72.3794% Note: One successful source step
Supplies reduced to  73.8794% Note: One successful source step
Supplies reduced to  76.1294% Note: One successful source step
Supplies reduced to  79.5044% Note: One successful source step
Supplies reduced to  84.5669% Note: One successful source step
Supplies reduced to  92.1607% Note: One successful source step
Supplies reduced to 100.0000% Note: One successful source step
Note: Source stepping completed
 Reference value :  2.80000e+00Note: Starting true gmin stepping
Trying gmin =   1.0000E-03 Note: One successful gmin step
Trying gmin =   1.0000E-04 Note: One successful gmin step
Trying gmin =   1.0000E-05 Note: One successful gmin step
Trying gmin =   1.0000E-06 Note: One successful gmin step
Trying gmin =   1.0000E-07 Note: One successful gmin step
Trying gmin =   1.0000E-08 Warning: Further gmin increment
Trying gmin =   5.6234E-08 Note: One successful gmin step
Trying gmin =   2.3714E-08 Note: One successful gmin step
Trying gmin =   6.4938E-09 Warning: Further gmin increment
Trying gmin =   1.7154E-08 Note: One successful gmin step
Trying gmin =   1.0554E-08 Note: One successful gmin step
Trying gmin =   6.4938E-09 Note: One successful gmin step
Trying gmin =   3.1340E-09 Note: One successful gmin step
Trying gmin =   1.0507E-09 Note: One successful gmin step
Trying gmin =   2.0397E-10 Note: One successful gmin step
Trying gmin =   2.0397E-11 Note: One successful gmin step
Trying gmin =   2.0397E-12 Note: One successful gmin step
Trying gmin =   1.0000E-12 Note: One successful gmin step
Note: True gmin stepping completed
 Reference value :  1.08000e+00pm                  =  1.514290e+02
Doing analysis at TEMP = 85.000000 and TNOM = 27.000000


No. of Data Rows : 91
psrr100             =  -5.081877e+01
psrr100k            =  -2.424501e+01
Doing analysis at TEMP = 85.000000 and TNOM = 27.000000


No. of Data Rows : 86
temp_coeff = 1.079764e+02
Doing analysis at TEMP = 85.000000 and TNOM = 27.000000


No. of Data Rows : 141
vldo_sup_2          =  1.795603e+00
vldo_sup_2_8        =  1.797966e+00
line_reg = 2.953750e-03
Note: No ".plot", ".print", or ".fourier" lines; no simulations run
vin                 =  1.920250e+00
dropout = 1.562500e-01
