 Reference value :  0.00000e+00
No compatibility mode selected!


Circuit: * ldo netlist 

Doing analysis at TEMP = 85.000000 and TNOM = 27.000000


No. of Data Rows : 1
bg_out = 1.197355e+00
inn = 1.143199e+00
inp = 1.143161e+00
l1#branch = 0.000000e+00
ldo_out = 2.595466e+00
m.xm1.msky130_fd_pr__nfet_g5v0d10v5#body = 3.166038e-11
m.xm1.msky130_fd_pr__nfet_g5v0d10v5#dbody = 6.274329e-11
m.xm1.msky130_fd_pr__nfet_g5v0d10v5#sbody = 3.223776e-11
m.xm2.msky130_fd_pr__pfet_g5v0d10v5#body = 2.500000e+00
m.xm2.msky130_fd_pr__pfet_g5v0d10v5#dbody = 2.500000e+00
m.xm2.msky130_fd_pr__pfet_g5v0d10v5#sbody = 2.500000e+00
m.xm3.msky130_fd_pr__pfet_g5v0d10v5#body = 2.500000e+00
m.xm3.msky130_fd_pr__pfet_g5v0d10v5#dbody = 2.500000e+00
m.xm3.msky130_fd_pr__pfet_g5v0d10v5#sbody = 2.500000e+00
m.xm4.msky130_fd_pr__pfet_g5v0d10v5#body = 2.500000e+00
m.xm4.msky130_fd_pr__pfet_g5v0d10v5#dbody = 2.500000e+00
m.xm4.msky130_fd_pr__pfet_g5v0d10v5#sbody = 2.500000e+00
m.xm5.msky130_fd_pr__pfet_g5v0d10v5#body = 2.500000e+00
m.xm5.msky130_fd_pr__pfet_g5v0d10v5#dbody = 2.500000e+00
m.xm5.msky130_fd_pr__pfet_g5v0d10v5#sbody = 2.500000e+00
m.xm6.msky130_fd_pr__nfet_g5v0d10v5#body = 2.043741e-11
m.xm6.msky130_fd_pr__nfet_g5v0d10v5#dbody = 5.109342e-11
m.xm6.msky130_fd_pr__nfet_g5v0d10v5#sbody = 1.021881e-11
m.xm7.msky130_fd_pr__pfet_g5v0d10v5#body = 2.500000e+00
m.xm7.msky130_fd_pr__pfet_g5v0d10v5#dbody = 2.500000e+00
m.xm7.msky130_fd_pr__pfet_g5v0d10v5#sbody = 2.500000e+00
m.xm8.msky130_fd_pr__pfet_g5v0d10v5#body = 2.500000e+00
m.xm8.msky130_fd_pr__pfet_g5v0d10v5#dbody = 2.500000e+00
m.xm8.msky130_fd_pr__pfet_g5v0d10v5#sbody = 2.500000e+00
m.xm9.msky130_fd_pr__nfet_g5v0d10v5#body = 2.842331e-11
m.xm9.msky130_fd_pr__nfet_g5v0d10v5#dbody = 5.839520e-11
m.xm9.msky130_fd_pr__nfet_g5v0d10v5#sbody = 2.687459e-11
m.xm10.msky130_fd_pr__nfet_g5v0d10v5#body = 1.734822e-07
m.xm10.msky130_fd_pr__nfet_g5v0d10v5#dbody = 8.681093e-08
m.xm10.msky130_fd_pr__nfet_g5v0d10v5#sbody = 8.675378e-08
m.xm11.msky130_fd_pr__pfet_g5v0d10v5#body = 2.500000e+00
m.xm11.msky130_fd_pr__pfet_g5v0d10v5#dbody = 2.500000e+00
m.xm11.msky130_fd_pr__pfet_g5v0d10v5#sbody = 2.500000e+00
m.xm12.msky130_fd_pr__pfet_g5v0d10v5#body = 2.500000e+00
m.xm12.msky130_fd_pr__pfet_g5v0d10v5#dbody = 2.500000e+00
m.xm12.msky130_fd_pr__pfet_g5v0d10v5#sbody = 2.500000e+00
m.xm13.msky130_fd_pr__nfet_g5v0d10v5#body = 4.686382e-12
m.xm13.msky130_fd_pr__nfet_g5v0d10v5#dbody = 1.171589e-11
m.xm13.msky130_fd_pr__nfet_g5v0d10v5#sbody = 2.343252e-12
m.xm14.msky130_fd_pr__pfet_g5v0d10v5#body = 2.500000e+00
m.xm14.msky130_fd_pr__pfet_g5v0d10v5#dbody = 2.500000e+00
m.xm14.msky130_fd_pr__pfet_g5v0d10v5#sbody = 2.500000e+00
m.xm15.msky130_fd_pr__nfet_g5v0d10v5#body = 8.361524e-14
m.xm15.msky130_fd_pr__nfet_g5v0d10v5#dbody = 2.090347e-13
m.xm15.msky130_fd_pr__nfet_g5v0d10v5#sbody = 4.181100e-14
m.xm16.msky130_fd_pr__nfet_g5v0d10v5#body = 5.616855e-11
m.xm16.msky130_fd_pr__nfet_g5v0d10v5#dbody = 1.012128e-10
m.xm16.msky130_fd_pr__nfet_g5v0d10v5#sbody = 6.729282e-11
m.xm17.msky130_fd_pr__pfet_g5v0d10v5#body = 2.500000e+00
m.xm17.msky130_fd_pr__pfet_g5v0d10v5#dbody = 2.500000e+00
m.xm17.msky130_fd_pr__pfet_g5v0d10v5#sbody = 2.500000e+00
m.xm18.msky130_fd_pr__nfet_g5v0d10v5#body = 2.202590e-17
m.xm18.msky130_fd_pr__nfet_g5v0d10v5#dbody = 5.506464e-17
m.xm18.msky130_fd_pr__nfet_g5v0d10v5#sbody = 1.101306e-17
m.xm19.msky130_fd_pr__nfet_g5v0d10v5#body = 3.172217e-11
m.xm19.msky130_fd_pr__nfet_g5v0d10v5#dbody = 6.289773e-11
m.xm19.msky130_fd_pr__nfet_g5v0d10v5#sbody = 3.226866e-11
m.xm20.msky130_fd_pr__nfet_g5v0d10v5#body = 1.449199e-11
m.xm20.msky130_fd_pr__nfet_g5v0d10v5#dbody = 3.622990e-11
m.xm20.msky130_fd_pr__nfet_g5v0d10v5#sbody = 7.246067e-12
m.xm22.msky130_fd_pr__nfet_g5v0d10v5#body = 1.149627e-11
m.xm22.msky130_fd_pr__nfet_g5v0d10v5#dbody = 2.874057e-11
m.xm22.msky130_fd_pr__nfet_g5v0d10v5#sbody = 5.748236e-12
m.xm24.msky130_fd_pr__pfet_g5v0d10v5#body = 2.500000e+00
m.xm24.msky130_fd_pr__pfet_g5v0d10v5#dbody = 2.500000e+00
m.xm24.msky130_fd_pr__pfet_g5v0d10v5#sbody = 2.500000e+00
m.xm26.msky130_fd_pr__pfet_g5v0d10v5#body = 2.500000e+00
m.xm26.msky130_fd_pr__pfet_g5v0d10v5#dbody = 2.500000e+00
m.xm26.msky130_fd_pr__pfet_g5v0d10v5#sbody = 2.500000e+00
mir = 1.451382e+00
net1 = 6.283761e-01
net2 = 1.614088e-04
net3 = 7.016556e-01
net4 = 2.315620e-01
net5 = 1.456324e+00
net6 = 9.462027e-01
net7 = 7.016167e-01
net8 = 2.499334e+00
net9 = 1.474022e+00
net10 = 2.136712e-01
net11 = 1.117570e-07
net12 = 1.117570e-07
net13 = 0.000000e+00
out = 1.117570e-07
pos = -7.07900e+02
q.xq2.qsky130_fd_pr__pnp_05v5_w0p68l0p68#collcx = 2.839037e-03
q.xq3.qsky130_fd_pr__pnp_05v5_w0p68l0p68#collcx = 3.581617e-04
q.xq4.qsky130_fd_pr__pnp_05v5_w0p68l0p68#collcx = 3.581617e-04
q.xq8.qsky130_fd_pr__pnp_05v5_w0p68l0p68#collcx = 3.581617e-04
q.xq10.qsky130_fd_pr__pnp_05v5_w0p68l0p68#collcx = 3.581617e-04
q.xq12.qsky130_fd_pr__pnp_05v5_w0p68l0p68#collcx = 3.581617e-04
q.xq14.qsky130_fd_pr__pnp_05v5_w0p68l0p68#collcx = 3.581617e-04
q.xq16.qsky130_fd_pr__pnp_05v5_w0p68l0p68#collcx = 3.581617e-04
q.xq18.qsky130_fd_pr__pnp_05v5_w0p68l0p68#collcx = 3.581617e-04
vb = 9.978579e-01
vdd = 2.500000e+00
vs#branch = 9.326357e-02
vt#branch = 0.000000e+00
xc1.a = 0.000000e+00
xc1.b1 = 0.000000e+00
xc3.a = 1.117570e-07
xc3.b1 = 1.117570e-07
xr1.xsky130_fd_pr__res_xhigh_po_0p69.ra = 7.098469e-01
xr2.xsky130_fd_pr__res_xhigh_po_0p69.ra = 7.098857e-01
xr3.xsky130_fd_pr__res_xhigh_po_0p69.ra = 4.908338e-03
xr4.xsky130_fd_pr__res_xhigh_po_0p69.ra = 6.317440e-01
xr5.xsky130_fd_pr__res_xhigh_po_0p69.ra = 4.908050e-03
xr6.xsky130_fd_pr__res_xhigh_po_0p69.ra = 8.717299e-03
xr7.xsky130_fd_pr__res_xhigh_po_0p69.ra = 1.117570e-07
xr8.xsky130_fd_pr__res_xhigh_po_0p69.ra = -7.73695e+02
xr9.xsky130_fd_pr__res_xhigh_po_0p69.ra = -6.57948e+01
Doing analysis at TEMP = 85.000000 and TNOM = 27.000000


No. of Data Rows : 91
Error: no such vector PM
Note: Starting true gmin stepping
Trying gmin =   1.0000E-03 Note: One successful gmin step
Trying gmin =   1.0000E-04 Note: One successful gmin step
Trying gmin =   1.0000E-05 Note: One successful gmin step
Trying gmin =   1.0000E-06 Note: One successful gmin step
Trying gmin =   1.0000E-07 Note: One successful gmin step
Trying gmin =   3.1623E-08 Warning: Further gmin increment
Trying gmin =   7.4989E-08 Note: One successful gmin step
Trying gmin =   4.8697E-08 Warning: Further gmin increment
Trying gmin =   6.7317E-08 Warning: Further gmin increment
Trying gmin =   7.2993E-08 Note: One successful gmin step
Trying gmin =   7.0098E-08 Warning: Further gmin increment
Trying gmin =   7.2258E-08 Note: One successful gmin step
Trying gmin =   7.1170E-08 Note: One successful gmin step
Trying gmin =   6.9568E-08 Note: One successful gmin step
Trying gmin =   6.7232E-08 Note: One successful gmin step
Trying gmin =   6.3875E-08 Note: One successful gmin step
Trying gmin =   5.9150E-08 Note: One successful gmin step
Trying gmin =   5.2711E-08 Note: One successful gmin step
Trying gmin =   4.4342E-08 Note: One successful gmin step
Trying gmin =   3.4213E-08 Note: One successful gmin step
Trying gmin =   2.3187E-08 Note: One successful gmin step
Trying gmin =   1.2937E-08 Note: One successful gmin step
Trying gmin =   5.3916E-09 Note: One successful gmin step
Trying gmin =   1.4506E-09 Note: One successful gmin step
Trying gmin =   2.0244E-10 Note: One successful gmin step
Trying gmin =   2.0244E-11 Note: One successful gmin step
Trying gmin =   2.0244E-12 Note: One successful gmin step
Trying gmin =   1.0000E-12 Note: One successful gmin step
Note: True gmin stepping completed
 Reference value :  2.80000e+00Note: Starting true gmin stepping
Trying gmin =   1.0000E-03 Note: One successful gmin step
Trying gmin =   1.0000E-04 Note: One successful gmin step
Trying gmin =   1.0000E-05 Note: One successful gmin step
Trying gmin =   1.0000E-06 Note: One successful gmin step
Trying gmin =   1.0000E-07 Note: One successful gmin step
Trying gmin =   1.0000E-08 Warning: Further gmin increment
Trying gmin =   5.6234E-08 Note: One successful gmin step
Trying gmin =   2.3714E-08 Note: One successful gmin step
Trying gmin =   6.4938E-09 Note: One successful gmin step
Trying gmin =   9.3057E-10 Note: One successful gmin step
Trying gmin =   9.3057E-11 Warning: Further gmin increment
Trying gmin =   5.2330E-10 Note: One successful gmin step
Trying gmin =   2.2067E-10 Warning: Further gmin increment
Trying gmin =   4.2170E-10 Note: One successful gmin step
Trying gmin =   3.0505E-10 Warning: Further gmin increment
Trying gmin =   3.8891E-10 Note: One successful gmin step
Trying gmin =   3.4444E-10 Note: One successful gmin step
Trying gmin =   2.8708E-10 Note: One successful gmin step
Trying gmin =   2.1845E-10 Note: One successful gmin step
Trying gmin =   1.4500E-10 Note: One successful gmin step
Trying gmin =   7.8417E-11 Note: One successful gmin step
Trying gmin =   3.1186E-11 Note: One successful gmin step
Trying gmin =   7.8213E-12 Note: One successful gmin step
Trying gmin =   1.0000E-12 Note: One successful gmin step
Note: True gmin stepping completed
 Reference value :  1.08000e+00Note: Starting true gmin stepping
Trying gmin =   1.0000E-03 Note: One successful gmin step
Trying gmin =   1.0000E-04 Note: One successful gmin step
Trying gmin =   1.0000E-05 Note: One successful gmin step
Trying gmin =   1.0000E-06 Note: One successful gmin step
Trying gmin =   1.0000E-07 Note: One successful gmin step
Trying gmin =   1.0000E-08 Note: One successful gmin step
Trying gmin =   3.1623E-09 Note: One successful gmin step
Trying gmin =   5.6234E-10 Note: One successful gmin step
Trying gmin =   5.6234E-11 Warning: Further gmin increment
Trying gmin =   3.1623E-10 Note: One successful gmin step
Trying gmin =   1.3335E-10 Warning: Further gmin increment
Trying gmin =   2.5483E-10 Note: One successful gmin step
Trying gmin =   1.8434E-10 Note: One successful gmin step
Trying gmin =   1.1342E-10 Note: One successful gmin step
Trying gmin =   5.4737E-11 Note: One successful gmin step
Trying gmin =   1.8352E-11 Note: One successful gmin step
Trying gmin =   3.5625E-12 Note: One successful gmin step
Trying gmin =   1.0000E-12 Note: One successful gmin step
Note: True gmin stepping completed
 Reference value :  2.60000e-01
Error: measure  pm  (AT) : out of interval
 meas ac pm find ph when vdb(out)=0 failed!

Doing analysis at TEMP = 85.000000 and TNOM = 27.000000


No. of Data Rows : 91
psrr100             =  -3.352855e-01
psrr100k            =  -3.334505e-01
Doing analysis at TEMP = 85.000000 and TNOM = 27.000000


No. of Data Rows : 86
temp_coeff = 3.181123e+02
Doing analysis at TEMP = 85.000000 and TNOM = 27.000000


No. of Data Rows : 141
vldo_sup_2          =  1.799529e+00
vldo_sup_2_8        =  1.801667e+00
line_reg = 2.672500e-03
Note: No ".plot", ".print", or ".fourier" lines; no simulations run
vin                 =  1.764114e+00
dropout = 1.140000e-04
