 Reference value :  0.00000e+00
No compatibility mode selected!


Circuit: * ldo netlist 

Doing analysis at TEMP = 0.000000 and TNOM = 27.000000


No. of Data Rows : 1
bg_out = 1.194866e+00
inn = 1.264552e+00
inp = 1.264515e+00
l1#branch = 0.000000e+00
ldo_out = 1.796541e+00
m.xm1.msky130_fd_pr__nfet_g5v0d10v5#body = 1.557452e-11
m.xm1.msky130_fd_pr__nfet_g5v0d10v5#dbody = 3.239723e-11
m.xm1.msky130_fd_pr__nfet_g5v0d10v5#sbody = 1.432632e-11
m.xm2.msky130_fd_pr__pfet_g5v0d10v5#body = 2.300000e+00
m.xm2.msky130_fd_pr__pfet_g5v0d10v5#dbody = 2.300000e+00
m.xm2.msky130_fd_pr__pfet_g5v0d10v5#sbody = 2.300000e+00
m.xm3.msky130_fd_pr__pfet_g5v0d10v5#body = 2.300000e+00
m.xm3.msky130_fd_pr__pfet_g5v0d10v5#dbody = 2.300000e+00
m.xm3.msky130_fd_pr__pfet_g5v0d10v5#sbody = 2.300000e+00
m.xm4.msky130_fd_pr__pfet_g5v0d10v5#body = 2.300000e+00
m.xm4.msky130_fd_pr__pfet_g5v0d10v5#dbody = 2.300000e+00
m.xm4.msky130_fd_pr__pfet_g5v0d10v5#sbody = 2.300000e+00
m.xm5.msky130_fd_pr__pfet_g5v0d10v5#body = 2.300000e+00
m.xm5.msky130_fd_pr__pfet_g5v0d10v5#dbody = 2.300000e+00
m.xm5.msky130_fd_pr__pfet_g5v0d10v5#sbody = 2.300000e+00
m.xm6.msky130_fd_pr__nfet_g5v0d10v5#body = 1.242670e-11
m.xm6.msky130_fd_pr__nfet_g5v0d10v5#dbody = 3.106675e-11
m.xm6.msky130_fd_pr__nfet_g5v0d10v5#sbody = 6.213355e-12
m.xm7.msky130_fd_pr__pfet_g5v0d10v5#body = 2.300000e+00
m.xm7.msky130_fd_pr__pfet_g5v0d10v5#dbody = 2.300000e+00
m.xm7.msky130_fd_pr__pfet_g5v0d10v5#sbody = 2.300000e+00
m.xm8.msky130_fd_pr__pfet_g5v0d10v5#body = 2.300000e+00
m.xm8.msky130_fd_pr__pfet_g5v0d10v5#dbody = 2.300000e+00
m.xm8.msky130_fd_pr__pfet_g5v0d10v5#sbody = 2.300000e+00
m.xm9.msky130_fd_pr__nfet_g5v0d10v5#body = 1.589285e-11
m.xm9.msky130_fd_pr__nfet_g5v0d10v5#dbody = 3.478671e-11
m.xm9.msky130_fd_pr__nfet_g5v0d10v5#sbody = 1.289184e-11
m.xm10.msky130_fd_pr__nfet_g5v0d10v5#body = 1.565060e-11
m.xm10.msky130_fd_pr__nfet_g5v0d10v5#dbody = 3.418107e-11
m.xm10.msky130_fd_pr__nfet_g5v0d10v5#sbody = 1.277072e-11
m.xm11.msky130_fd_pr__pfet_g5v0d10v5#body = 2.300000e+00
m.xm11.msky130_fd_pr__pfet_g5v0d10v5#dbody = 2.300000e+00
m.xm11.msky130_fd_pr__pfet_g5v0d10v5#sbody = 2.300000e+00
m.xm12.msky130_fd_pr__pfet_g5v0d10v5#body = 2.300000e+00
m.xm12.msky130_fd_pr__pfet_g5v0d10v5#dbody = 2.300000e+00
m.xm12.msky130_fd_pr__pfet_g5v0d10v5#sbody = 2.300000e+00
m.xm13.msky130_fd_pr__nfet_g5v0d10v5#body = 2.472689e-12
m.xm13.msky130_fd_pr__nfet_g5v0d10v5#dbody = 6.181714e-12
m.xm13.msky130_fd_pr__nfet_g5v0d10v5#sbody = 1.236354e-12
m.xm14.msky130_fd_pr__pfet_g5v0d10v5#body = 2.300000e+00
m.xm14.msky130_fd_pr__pfet_g5v0d10v5#dbody = 2.300000e+00
m.xm14.msky130_fd_pr__pfet_g5v0d10v5#sbody = 2.300000e+00
m.xm15.msky130_fd_pr__nfet_g5v0d10v5#body = 6.927523e-17
m.xm15.msky130_fd_pr__nfet_g5v0d10v5#dbody = 1.731848e-16
m.xm15.msky130_fd_pr__nfet_g5v0d10v5#sbody = 3.464088e-17
m.xm16.msky130_fd_pr__nfet_g5v0d10v5#body = 4.455701e-11
m.xm16.msky130_fd_pr__nfet_g5v0d10v5#dbody = 7.977863e-11
m.xm16.msky130_fd_pr__nfet_g5v0d10v5#sbody = 5.389241e-11
m.xm17.msky130_fd_pr__pfet_g5v0d10v5#body = 2.300000e+00
m.xm17.msky130_fd_pr__pfet_g5v0d10v5#dbody = 2.300000e+00
m.xm17.msky130_fd_pr__pfet_g5v0d10v5#sbody = 2.300000e+00
m.xm18.msky130_fd_pr__nfet_g5v0d10v5#body = 1.712423e-11
m.xm18.msky130_fd_pr__nfet_g5v0d10v5#dbody = 4.280940e-11
m.xm18.msky130_fd_pr__nfet_g5v0d10v5#sbody = 8.562126e-12
m.xm19.msky130_fd_pr__nfet_g5v0d10v5#body = 1.563003e-11
m.xm19.msky130_fd_pr__nfet_g5v0d10v5#dbody = 3.253600e-11
m.xm19.msky130_fd_pr__nfet_g5v0d10v5#sbody = 1.435408e-11
m.xm20.msky130_fd_pr__nfet_g5v0d10v5#body = 1.299423e-11
m.xm20.msky130_fd_pr__nfet_g5v0d10v5#dbody = 3.248555e-11
m.xm20.msky130_fd_pr__nfet_g5v0d10v5#sbody = 6.497124e-12
m.xm22.msky130_fd_pr__nfet_g5v0d10v5#body = 3.269568e-12
m.xm22.msky130_fd_pr__nfet_g5v0d10v5#dbody = 8.173916e-12
m.xm22.msky130_fd_pr__nfet_g5v0d10v5#sbody = 1.634788e-12
m.xm24.msky130_fd_pr__pfet_g5v0d10v5#body = 2.300000e+00
m.xm24.msky130_fd_pr__pfet_g5v0d10v5#dbody = 2.300000e+00
m.xm24.msky130_fd_pr__pfet_g5v0d10v5#sbody = 2.300000e+00
m.xm26.msky130_fd_pr__pfet_g5v0d10v5#body = 2.300000e+00
m.xm26.msky130_fd_pr__pfet_g5v0d10v5#dbody = 2.300000e+00
m.xm26.msky130_fd_pr__pfet_g5v0d10v5#sbody = 2.300000e+00
mir = 9.843942e-01
net1 = 7.736788e-01
net2 = 5.538384e-06
net3 = 8.269619e-01
net4 = 2.615578e-01
net5 = 9.888347e-01
net6 = 9.941283e-01
net7 = 8.269248e-01
net8 = 1.054228e+00
net9 = 1.073608e+00
net10 = 1.978133e-01
net11 = 1.369890e+00
net12 = 1.369890e+00
net13 = 0.000000e+00
out = 1.369890e+00
pos = 1.195046e+00
q.xq2.qsky130_fd_pr__pnp_05v5_w0p68l0p68#collcx = 1.641764e-03
q.xq3.qsky130_fd_pr__pnp_05v5_w0p68l0p68#collcx = 2.077310e-04
q.xq4.qsky130_fd_pr__pnp_05v5_w0p68l0p68#collcx = 2.077310e-04
q.xq8.qsky130_fd_pr__pnp_05v5_w0p68l0p68#collcx = 2.077310e-04
q.xq10.qsky130_fd_pr__pnp_05v5_w0p68l0p68#collcx = 2.077310e-04
q.xq12.qsky130_fd_pr__pnp_05v5_w0p68l0p68#collcx = 2.077310e-04
q.xq14.qsky130_fd_pr__pnp_05v5_w0p68l0p68#collcx = 2.077310e-04
q.xq16.qsky130_fd_pr__pnp_05v5_w0p68l0p68#collcx = 2.077310e-04
q.xq18.qsky130_fd_pr__pnp_05v5_w0p68l0p68#collcx = 2.077310e-04
vb = 1.039536e+00
vdd = 2.300000e+00
vs#branch = -1.65584e-04
vt#branch = 0.000000e+00
xc1.a = 0.000000e+00
xc1.b1 = 0.000000e+00
xc3.a = 1.369890e+00
xc3.b1 = 1.369890e+00
xr1.xsky130_fd_pr__res_xhigh_po_0p69.ra = 8.341720e-01
xr2.xsky130_fd_pr__res_xhigh_po_0p69.ra = 8.342090e-01
xr3.xsky130_fd_pr__res_xhigh_po_0p69.ra = 5.188322e-03
xr4.xsky130_fd_pr__res_xhigh_po_0p69.ra = 7.758616e-01
xr5.xsky130_fd_pr__res_xhigh_po_0p69.ra = 5.188073e-03
xr6.xsky130_fd_pr__res_xhigh_po_0p69.ra = 7.720033e-03
xr7.xsky130_fd_pr__res_xhigh_po_0p69.ra = 1.369890e+00
xr8.xsky130_fd_pr__res_xhigh_po_0p69.ra = 1.207892e+00
xr9.xsky130_fd_pr__res_xhigh_po_0p69.ra = 1.347366e-02
Doing analysis at TEMP = 0.000000 and TNOM = 27.000000


No. of Data Rows : 91
Note: Starting true gmin stepping
Trying gmin =   1.0000E-03 Note: One successful gmin step
Trying gmin =   1.0000E-04 Note: One successful gmin step
Trying gmin =   1.0000E-05 Note: One successful gmin step
Trying gmin =   1.0000E-06 Note: One successful gmin step
Trying gmin =   1.0000E-07 Note: One successful gmin step
Trying gmin =   1.0000E-08 Warning: Further gmin increment
Trying gmin =   5.6234E-08 Warning: Further gmin increment
Trying gmin =   8.6596E-08 Note: One successful gmin step
Trying gmin =   6.9783E-08 Note: One successful gmin step
Trying gmin =   5.0481E-08 Warning: Further gmin increment
Trying gmin =   6.4357E-08 Note: One successful gmin step
Trying gmin =   5.6998E-08 Warning: Further gmin increment
Trying gmin =   6.2432E-08 Note: One successful gmin step
Trying gmin =   5.9653E-08 Note: One successful gmin step
Trying gmin =   5.5715E-08 Warning: Further gmin increment
Trying gmin =   5.8643E-08 Warning: Further gmin increment
Trying gmin =   5.9399E-08 Note: One successful gmin step
Trying gmin =   5.9020E-08 Note: One successful gmin step
Trying gmin =   5.8456E-08 Warning: Further gmin increment
Trying gmin =   5.8879E-08 Note: One successful gmin step
Trying gmin =   5.8667E-08 Warning: Further gmin increment
Trying gmin =   5.8826E-08 Note: One successful gmin step
Trying gmin =   5.8746E-08 Note: One successful gmin step
Trying gmin =   5.8627E-08 Warning: Further gmin increment
Trying gmin =   5.8716E-08 Note: One successful gmin step
Trying gmin =   5.8672E-08 Note: One successful gmin step
Trying gmin =   5.8605E-08 Warning: Further gmin increment
Trying gmin =   5.8655E-08 Warning: Further gmin increment
Trying gmin =   5.8668E-08 Warning: Further gmin increment
Trying gmin =   5.8671E-08 Warning: Last gmin step failed
Warning: True gmin stepping failed
Note: Starting dynamic gmin stepping
Trying gmin =   1.0000E-03 Note: One successful gmin step
Trying gmin =   1.0000E-04 Note: One successful gmin step
Trying gmin =   1.0000E-05 Warning: Further gmin increment
Trying gmin =   5.6234E-05 Note: One successful gmin step
Trying gmin =   2.3714E-05 Note: One successful gmin step
Trying gmin =   6.4938E-06 Warning: Further gmin increment
Trying gmin =   1.7154E-05 Note: One successful gmin step
Trying gmin =   1.0554E-05 Warning: Further gmin increment
Trying gmin =   1.5193E-05 Note: One successful gmin step
Trying gmin =   1.2663E-05 Note: One successful gmin step
Trying gmin =   9.6358E-06 Warning: Further gmin increment
Trying gmin =   1.1827E-05 Note: One successful gmin step
Trying gmin =   1.0675E-05 Warning: Further gmin increment
Trying gmin =   1.1528E-05 Note: One successful gmin step
Trying gmin =   1.1093E-05 Note: One successful gmin step
Trying gmin =   1.0472E-05 Note: One successful gmin step
Trying gmin =   9.6050E-06 Note: One successful gmin step
Trying gmin =   8.4369E-06 Note: One successful gmin step
Trying gmin =   6.9456E-06 Note: One successful gmin step
Trying gmin =   5.1881E-06 Note: One successful gmin step
Trying gmin =   3.3493E-06 Note: One successful gmin step
Trying gmin =   2.6910E-06 Note: One successful gmin step
Trying gmin =   1.9381E-06 Note: One successful gmin step
Trying gmin =   1.1846E-06 Note: One successful gmin step
Trying gmin =   5.6603E-07 Note: One successful gmin step
Trying gmin =   1.8696E-07 Warning: Further gmin increment
Trying gmin =   4.2911E-07 Note: One successful gmin step
Trying gmin =   2.8324E-07 Note: One successful gmin step
Trying gmin =   1.5190E-07 Warning: Further gmin increment
Trying gmin =   2.4239E-07 Warning: Further gmin increment
Trying gmin =   2.7242E-07 Warning: Further gmin increment
Trying gmin =   2.8050E-07 Note: One successful gmin step
Trying gmin =   2.7643E-07 Note: One successful gmin step
Trying gmin =   2.7044E-07 Warning: Further gmin increment
Trying gmin =   2.7492E-07 Note: One successful gmin step
Trying gmin =   2.7267E-07 Warning: Further gmin increment
Trying gmin =   2.7436E-07 Note: One successful gmin step
Trying gmin =   2.7351E-07 Note: One successful gmin step
Trying gmin =   2.7225E-07 Warning: Further gmin increment
Trying gmin =   2.7320E-07 Warning: Further gmin increment
Trying gmin =   2.7344E-07 Note: One successful gmin step
Trying gmin =   2.7332E-07 Warning: Further gmin increment
Trying gmin =   2.7341E-07 Note: One successful gmin step
Trying gmin =   2.7336E-07 Warning: Further gmin increment
Trying gmin =   2.7340E-07 Note: One successful gmin step
Trying gmin =   2.7338E-07 Note: One successful gmin step
Trying gmin =   2.7335E-07 Warning: Further gmin increment
Trying gmin =   2.7337E-07 Note: One successful gmin step
Trying gmin =   2.7336E-07 Warning: Last gmin step failed
Warning: Dynamic gmin stepping failed
Note: Starting source stepping
Supplies reduced to   0.0000% Note: One successful source step
Supplies reduced to   0.1000% Note: One successful source step
Supplies reduced to   0.2000% Note: One successful source step
Supplies reduced to   0.3500% Note: One successful source step
Supplies reduced to   0.5750% Note: One successful source step
Supplies reduced to   0.9125% Note: One successful source step
Supplies reduced to   1.4188% Note: One successful source step
Supplies reduced to   2.1781% Note: One successful source step
Supplies reduced to   3.3172% Note: One successful source step
Supplies reduced to   5.0258% Note: One successful source step
Supplies reduced to   7.5887% Note: One successful source step
Supplies reduced to  11.4330% Note: One successful source step
Supplies reduced to  17.1995% Note: One successful source step
Supplies reduced to  25.8493% Note: One successful source step
Supplies reduced to  38.8239% Supplies reduced to  25.8493% Note: One successful source step
Supplies reduced to  26.8493% Note: One successful source step
Supplies reduced to  28.3493% Note: One successful source step
Supplies reduced to  30.5993% Note: One successful source step
Supplies reduced to  33.9743% Note: One successful source step
Supplies reduced to  39.0368% Note: One successful source step
Supplies reduced to  44.0993% Supplies reduced to  39.0368% Note: One successful source step
Supplies reduced to  39.5430% Note: One successful source step
Supplies reduced to  40.3024% Note: One successful source step
Supplies reduced to  41.4415% Note: One successful source step
Supplies reduced to  43.1500% Note: One successful source step
Supplies reduced to  45.7129% Note: One successful source step
Supplies reduced to  49.5573% Note: One successful source step
Supplies reduced to  55.3238% Note: One successful source step
Supplies reduced to  63.9735% Note: One successful source step
Supplies reduced to  76.9482% Supplies reduced to  63.9735% Note: One successful source step
Supplies reduced to  64.9735% Note: One successful source step
Supplies reduced to  66.4735% Note: One successful source step
Supplies reduced to  68.7235% Note: One successful source step
Supplies reduced to  72.0985% Supplies reduced to  68.7235% Note: One successful source step
Supplies reduced to  69.2298% Note: One successful source step
Supplies reduced to  69.9892% Note: One successful source step
Supplies reduced to  71.1282% Note: One successful source step
Supplies reduced to  72.8368% Supplies reduced to  71.1282% Note: One successful source step
Supplies reduced to  71.3845% Note: One successful source step
Supplies reduced to  71.7689% Supplies reduced to  71.3845% Note: One successful source step
Supplies reduced to  71.4422% Note: One successful source step
Supplies reduced to  71.5287% Note: One successful source step
Supplies reduced to  71.6584% Supplies reduced to  71.5287% Note: One successful source step
Supplies reduced to  71.5481% Note: One successful source step
Supplies reduced to  71.5773% Note: One successful source step
Supplies reduced to  71.6211% Supplies reduced to  71.5773% Note: One successful source step
Supplies reduced to  71.5839% Note: One successful source step
Supplies reduced to  71.5938% Note: One successful source step
Supplies reduced to  71.6085% Supplies reduced to  71.5938% Note: One successful source step
Supplies reduced to  71.5960% Note: One successful source step
Supplies reduced to  71.5993% Note: One successful source step
Supplies reduced to  71.6043% Note: One successful source step
Supplies reduced to  71.6118% Supplies reduced to  71.6043% Note: One successful source step
Supplies reduced to  71.6054% Note: One successful source step
Supplies reduced to  71.6071% Supplies reduced to  71.6054% Note: One successful source step
Supplies reduced to  71.6057% Note: One successful source step
Supplies reduced to  71.6060% Supplies reduced to  71.6057% Note: One successful source step
Supplies reduced to  71.6057% Note: One successful source step
Supplies reduced to  71.6058% Note: One successful source step
Supplies reduced to  71.6059% Warning: source stepping failed
doAnalyses: Too many iterations without convergence

dc simulation(s) aborted
Error(parse.c--checkvalid): vldo_sup_2_8: zero length vector.
Error: RHS "abs((vldo_sup_2_8-vldo_sup_2)/0.8)" invalid
Error(parse.c--checkvalid): line_reg: zero length vector.
Error(parse.c--checkvalid): vin: zero length vector.
Error: RHS "vin-1.764" invalid
Error(parse.c--checkvalid): dropout: zero length vector.
Error: no such vector dropout
Note: No ".plot", ".print", or ".fourier" lines; no simulations run
pm                  =  4.898832e+01
Doing analysis at TEMP = 0.000000 and TNOM = 27.000000


No. of Data Rows : 91
psrr100             =  -5.805254e+01
psrr100k            =  -2.792719e+01
Doing analysis at TEMP = 0.000000 and TNOM = 27.000000


No. of Data Rows : 86
temp_coeff = 1.147935e+02
Doing analysis at TEMP = 0.000000 and TNOM = 27.000000


Error: measure  vldo_sup_2  (AT) : out of interval
 meas dc vldo_sup_2 find ldo_out at=2 failed!


Error: measure  vldo_sup_2_8  (AT) : out of interval
 meas dc vldo_sup_2_8 find ldo_out at=2.8 failed!


Error: measure  vin  (WHEN) : out of interval
 meas dc vin when v(ldo_out)=1.764 failed!

