 Reference value :  0.00000e+00
No compatibility mode selected!


Circuit: * ldo netlist 

Doing analysis at TEMP = 85.000000 and TNOM = 27.000000


No. of Data Rows : 1
bg_out = 1.202736e+00
inn = 1.149821e+00
inp = 1.149742e+00
l1#branch = 0.000000e+00
ldo_out = 1.810256e+00
m.xm1.msky130_fd_pr__nfet_g5v0d10v5#body = 2.645856e-11
m.xm1.msky130_fd_pr__nfet_g5v0d10v5#dbody = 4.976605e-11
m.xm1.msky130_fd_pr__nfet_g5v0d10v5#sbody = 2.960961e-11
m.xm2.msky130_fd_pr__pfet_g5v0d10v5#body = 2.100000e+00
m.xm2.msky130_fd_pr__pfet_g5v0d10v5#dbody = 2.100000e+00
m.xm2.msky130_fd_pr__pfet_g5v0d10v5#sbody = 2.100000e+00
m.xm3.msky130_fd_pr__pfet_g5v0d10v5#body = 2.100000e+00
m.xm3.msky130_fd_pr__pfet_g5v0d10v5#dbody = 2.100000e+00
m.xm3.msky130_fd_pr__pfet_g5v0d10v5#sbody = 2.100000e+00
m.xm4.msky130_fd_pr__pfet_g5v0d10v5#body = 2.100000e+00
m.xm4.msky130_fd_pr__pfet_g5v0d10v5#dbody = 2.100000e+00
m.xm4.msky130_fd_pr__pfet_g5v0d10v5#sbody = 2.100000e+00
m.xm5.msky130_fd_pr__pfet_g5v0d10v5#body = 2.100000e+00
m.xm5.msky130_fd_pr__pfet_g5v0d10v5#dbody = 2.100000e+00
m.xm5.msky130_fd_pr__pfet_g5v0d10v5#sbody = 2.100000e+00
m.xm6.msky130_fd_pr__nfet_g5v0d10v5#body = 2.056465e-11
m.xm6.msky130_fd_pr__nfet_g5v0d10v5#dbody = 5.141151e-11
m.xm6.msky130_fd_pr__nfet_g5v0d10v5#sbody = 1.028244e-11
m.xm7.msky130_fd_pr__pfet_g5v0d10v5#body = 2.100000e+00
m.xm7.msky130_fd_pr__pfet_g5v0d10v5#dbody = 2.100000e+00
m.xm7.msky130_fd_pr__pfet_g5v0d10v5#sbody = 2.100000e+00
m.xm8.msky130_fd_pr__pfet_g5v0d10v5#body = 2.100000e+00
m.xm8.msky130_fd_pr__pfet_g5v0d10v5#dbody = 2.100000e+00
m.xm8.msky130_fd_pr__pfet_g5v0d10v5#sbody = 2.100000e+00
m.xm9.msky130_fd_pr__nfet_g5v0d10v5#body = 2.468205e-11
m.xm9.msky130_fd_pr__nfet_g5v0d10v5#dbody = 4.815146e-11
m.xm9.msky130_fd_pr__nfet_g5v0d10v5#sbody = 2.589470e-11
m.xm10.msky130_fd_pr__nfet_g5v0d10v5#body = 2.440137e-11
m.xm10.msky130_fd_pr__nfet_g5v0d10v5#dbody = 4.744974e-11
m.xm10.msky130_fd_pr__nfet_g5v0d10v5#sbody = 2.575436e-11
m.xm11.msky130_fd_pr__pfet_g5v0d10v5#body = 2.100000e+00
m.xm11.msky130_fd_pr__pfet_g5v0d10v5#dbody = 2.100000e+00
m.xm11.msky130_fd_pr__pfet_g5v0d10v5#sbody = 2.100000e+00
m.xm12.msky130_fd_pr__pfet_g5v0d10v5#body = 2.100000e+00
m.xm12.msky130_fd_pr__pfet_g5v0d10v5#dbody = 2.100000e+00
m.xm12.msky130_fd_pr__pfet_g5v0d10v5#sbody = 2.100000e+00
m.xm13.msky130_fd_pr__nfet_g5v0d10v5#body = 5.130013e-12
m.xm13.msky130_fd_pr__nfet_g5v0d10v5#dbody = 1.282496e-11
m.xm13.msky130_fd_pr__nfet_g5v0d10v5#sbody = 2.565076e-12
m.xm14.msky130_fd_pr__pfet_g5v0d10v5#body = 2.100000e+00
m.xm14.msky130_fd_pr__pfet_g5v0d10v5#dbody = 2.100000e+00
m.xm14.msky130_fd_pr__pfet_g5v0d10v5#sbody = 2.100000e+00
m.xm15.msky130_fd_pr__nfet_g5v0d10v5#body = 8.374097e-15
m.xm15.msky130_fd_pr__nfet_g5v0d10v5#dbody = 2.093490e-14
m.xm15.msky130_fd_pr__nfet_g5v0d10v5#sbody = 4.187392e-15
m.xm16.msky130_fd_pr__nfet_g5v0d10v5#body = 5.125132e-11
m.xm16.msky130_fd_pr__nfet_g5v0d10v5#dbody = 8.875422e-11
m.xm16.msky130_fd_pr__nfet_g5v0d10v5#sbody = 6.499975e-11
m.xm17.msky130_fd_pr__pfet_g5v0d10v5#body = 2.100000e+00
m.xm17.msky130_fd_pr__pfet_g5v0d10v5#dbody = 2.100000e+00
m.xm17.msky130_fd_pr__pfet_g5v0d10v5#sbody = 2.100000e+00
m.xm18.msky130_fd_pr__nfet_g5v0d10v5#body = 2.131401e-11
m.xm18.msky130_fd_pr__nfet_g5v0d10v5#dbody = 5.326386e-11
m.xm18.msky130_fd_pr__nfet_g5v0d10v5#sbody = 1.065709e-11
m.xm19.msky130_fd_pr__nfet_g5v0d10v5#body = 2.656146e-11
m.xm19.msky130_fd_pr__nfet_g5v0d10v5#dbody = 5.002331e-11
m.xm19.msky130_fd_pr__nfet_g5v0d10v5#sbody = 2.966107e-11
m.xm20.msky130_fd_pr__nfet_g5v0d10v5#body = 1.462789e-11
m.xm20.msky130_fd_pr__nfet_g5v0d10v5#dbody = 3.656965e-11
m.xm20.msky130_fd_pr__nfet_g5v0d10v5#sbody = 7.314025e-12
m.xm22.msky130_fd_pr__nfet_g5v0d10v5#body = 1.148256e-11
m.xm22.msky130_fd_pr__nfet_g5v0d10v5#dbody = 2.870628e-11
m.xm22.msky130_fd_pr__nfet_g5v0d10v5#sbody = 5.741389e-12
m.xm24.msky130_fd_pr__pfet_g5v0d10v5#body = 2.100000e+00
m.xm24.msky130_fd_pr__pfet_g5v0d10v5#dbody = 2.100000e+00
m.xm24.msky130_fd_pr__pfet_g5v0d10v5#sbody = 2.100000e+00
m.xm26.msky130_fd_pr__pfet_g5v0d10v5#body = 2.100000e+00
m.xm26.msky130_fd_pr__pfet_g5v0d10v5#dbody = 2.100000e+00
m.xm26.msky130_fd_pr__pfet_g5v0d10v5#sbody = 2.100000e+00
mir = 1.036329e+00
net1 = 6.313827e-01
net2 = 1.613071e-05
net3 = 7.052083e-01
net4 = 2.304852e-01
net5 = 1.044561e+00
net6 = 9.563813e-01
net7 = 7.051272e-01
net8 = 1.116642e+00
net9 = 1.139097e+00
net10 = 2.489904e-01
net11 = 1.542776e+00
net12 = 1.542776e+00
net13 = 0.000000e+00
out = 1.542776e+00
pos = 1.203016e+00
q.xq2.qsky130_fd_pr__pnp_05v5_w0p68l0p68#collcx = 3.099126e-03
q.xq3.qsky130_fd_pr__pnp_05v5_w0p68l0p68#collcx = 3.913441e-04
q.xq4.qsky130_fd_pr__pnp_05v5_w0p68l0p68#collcx = 3.913441e-04
q.xq8.qsky130_fd_pr__pnp_05v5_w0p68l0p68#collcx = 3.913441e-04
q.xq10.qsky130_fd_pr__pnp_05v5_w0p68l0p68#collcx = 3.913441e-04
q.xq12.qsky130_fd_pr__pnp_05v5_w0p68l0p68#collcx = 3.913441e-04
q.xq14.qsky130_fd_pr__pnp_05v5_w0p68l0p68#collcx = 3.913441e-04
q.xq16.qsky130_fd_pr__pnp_05v5_w0p68l0p68#collcx = 3.913441e-04
q.xq18.qsky130_fd_pr__pnp_05v5_w0p68l0p68#collcx = 3.913441e-04
vb = 1.008730e+00
vdd = 2.100000e+00
vs#branch = -1.93526e-04
vt#branch = 0.000000e+00
xc1.a = 0.000000e+00
xc1.b1 = 0.000000e+00
xc3.a = 1.542776e+00
xc3.b1 = 1.542776e+00
xr1.xsky130_fd_pr__res_xhigh_po_0p69.ra = 7.083016e-01
xr2.xsky130_fd_pr__res_xhigh_po_0p69.ra = 7.083827e-01
xr3.xsky130_fd_pr__res_xhigh_po_0p69.ra = 1.893406e-03
xr4.xsky130_fd_pr__res_xhigh_po_0p69.ra = 6.326814e-01
xr5.xsky130_fd_pr__res_xhigh_po_0p69.ra = 1.893176e-03
xr6.xsky130_fd_pr__res_xhigh_po_0p69.ra = 3.361777e-03
xr7.xsky130_fd_pr__res_xhigh_po_0p69.ra = 1.542776e+00
xr8.xsky130_fd_pr__res_xhigh_po_0p69.ra = 1.208603e+00
xr9.xsky130_fd_pr__res_xhigh_po_0p69.ra = 5.859720e-03
Doing analysis at TEMP = 85.000000 and TNOM = 27.000000


No. of Data Rows : 91
Note: Starting true gmin stepping
Trying gmin =   1.0000E-03 Note: One successful gmin step
Trying gmin =   1.0000E-04 Note: One successful gmin step
Trying gmin =   1.0000E-05 Note: One successful gmin step
Trying gmin =   1.0000E-06 Note: One successful gmin step
Trying gmin =   1.0000E-07 Warning: Further gmin increment
Trying gmin =   5.6234E-07 Note: One successful gmin step
Trying gmin =   2.3714E-07 Note: One successful gmin step
Trying gmin =   6.4938E-08 Warning: Further gmin increment
Trying gmin =   1.7154E-07 Note: One successful gmin step
Trying gmin =   1.0554E-07 Warning: Further gmin increment
Trying gmin =   1.5193E-07 Warning: Further gmin increment
Trying gmin =   1.6641E-07 Note: One successful gmin step
Trying gmin =   1.5901E-07 Warning: Further gmin increment
Trying gmin =   1.6453E-07 Note: One successful gmin step
Trying gmin =   1.6175E-07 Warning: Further gmin increment
Trying gmin =   1.6383E-07 Note: One successful gmin step
Trying gmin =   1.6278E-07 Warning: Further gmin increment
Trying gmin =   1.6357E-07 Note: One successful gmin step
Trying gmin =   1.6318E-07 Warning: Further gmin increment
Trying gmin =   1.6347E-07 Note: One successful gmin step
Trying gmin =   1.6332E-07 Warning: Further gmin increment
Trying gmin =   1.6343E-07 Note: One successful gmin step
Trying gmin =   1.6338E-07 Note: One successful gmin step
Trying gmin =   1.6330E-07 Warning: Further gmin increment
Trying gmin =   1.6336E-07 Warning: Further gmin increment
Trying gmin =   1.6337E-07 Note: One successful gmin step
Trying gmin =   1.6336E-07 Note: One successful gmin step
Trying gmin =   1.6335E-07 Warning: Further gmin increment
Trying gmin =   1.6336E-07 Warning: Last gmin step failed
Warning: True gmin stepping failed
Note: Starting dynamic gmin stepping
Trying gmin =   1.0000E-03 Note: One successful gmin step
Trying gmin =   1.0000E-04 Note: One successful gmin step
Trying gmin =   1.0000E-05 Warning: Further gmin increment
Trying gmin =   5.6234E-05 Note: One successful gmin step
Trying gmin =   2.3714E-05 Note: One successful gmin step
Trying gmin =   6.4938E-06 Warning: Further gmin increment
Trying gmin =   1.7154E-05 Note: One successful gmin step
Trying gmin =   1.0554E-05 Warning: Further gmin increment
Trying gmin =   1.5193E-05 Note: One successful gmin step
Trying gmin =   1.2663E-05 Note: One successful gmin step
Trying gmin =   9.6358E-06 Warning: Further gmin increment
Trying gmin =   1.1827E-05 Note: One successful gmin step
Trying gmin =   1.0675E-05 Note: One successful gmin step
Trying gmin =   9.1546E-06 Note: One successful gmin step
Trying gmin =   7.2699E-06 Note: One successful gmin step
Trying gmin =   5.1447E-06 Note: One successful gmin step
Trying gmin =   3.6407E-06 Note: One successful gmin step
Trying gmin =   2.1674E-06 Warning: Further gmin increment
Trying gmin =   3.1980E-06 Note: One successful gmin step
Trying gmin =   2.6327E-06 Warning: Further gmin increment
Trying gmin =   3.0462E-06 Note: One successful gmin step
Trying gmin =   2.8319E-06 Note: One successful gmin step
Trying gmin =   2.7305E-06 Note: One successful gmin step
Trying gmin =   2.5851E-06 Note: One successful gmin step
Trying gmin =   2.3815E-06 Note: One successful gmin step
Trying gmin =   2.1057E-06 Note: One successful gmin step
Trying gmin =   1.7507E-06 Note: One successful gmin step
Trying gmin =   1.3272E-06 Note: One successful gmin step
Trying gmin =   8.7607E-07 Note: One successful gmin step
Trying gmin =   4.6981E-07 Note: One successful gmin step
Trying gmin =   1.8451E-07 Note: One successful gmin step
Trying gmin =   4.5409E-08 Note: One successful gmin step
Trying gmin =   5.5441E-09 Note: One successful gmin step
Trying gmin =   5.5441E-10 Note: One successful gmin step
Trying gmin =   5.5441E-11 Note: One successful gmin step
Trying gmin =   5.5441E-12 Note: One successful gmin step
Trying gmin =   1.0000E-12 Note: One successful gmin step
Note: Dynamic gmin stepping completed
 Reference value :  2.80000e+00Note: Starting true gmin stepping
Trying gmin =   1.0000E-03 Note: One successful gmin step
Trying gmin =   1.0000E-04 Note: One successful gmin step
Trying gmin =   1.0000E-05 Note: One successful gmin step
Trying gmin =   1.0000E-06 Note: One successful gmin step
Trying gmin =   1.0000E-07 Note: One successful gmin step
Trying gmin =   1.0000E-08 Warning: Further gmin increment
Trying gmin =   5.6234E-08 Note: One successful gmin step
Trying gmin =   2.3714E-08 Note: One successful gmin step
Trying gmin =   6.4938E-09 Note: One successful gmin step
Trying gmin =   9.3057E-10 Note: One successful gmin step
Trying gmin =   9.3057E-11 Warning: Further gmin increment
Trying gmin =   5.2330E-10 Note: One successful gmin step
Trying gmin =   2.2067E-10 Warning: Further gmin increment
Trying gmin =   4.2170E-10 Note: One successful gmin step
Trying gmin =   3.0505E-10 Note: One successful gmin step
Trying gmin =   1.8769E-10 Note: One successful gmin step
Trying gmin =   9.0580E-11 Note: One successful gmin step
Trying gmin =   3.0368E-11 Note: One successful gmin step
Trying gmin =   5.8953E-12 Note: One successful gmin step
Trying gmin =   1.0000E-12 Note: One successful gmin step
Note: True gmin stepping completed
 Reference value :  1.10000e+00Note: Starting true gmin stepping
Trying gmin =   1.0000E-03 Note: One successful gmin step
Trying gmin =   1.0000E-04 Note: One successful gmin step
Trying gmin =   1.0000E-05 Note: One successful gmin step
Trying gmin =   1.0000E-06 Note: One successful gmin step
Trying gmin =   1.0000E-07 Note: One successful gmin step
Trying gmin =   1.0000E-08 Warning: Further gmin increment
Trying gmin =   5.6234E-08 Note: One successful gmin step
Trying gmin =   2.3714E-08 Note: One successful gmin step
Trying gmin =   6.4938E-09 Note: One successful gmin step
Trying gmin =   9.3057E-10 Note: One successful gmin step
Trying gmin =   9.3057E-11 Warning: Further gmin increment
Trying gmin =   5.2330E-10 Note: One successful gmin step
Trying gmin =   2.2067E-10 Note: One successful gmin step
Trying gmin =   6.0430E-11 Note: One successful gmin step
Trying gmin =   8.6596E-12 Note: One successful gmin step
Trying gmin =   1.0000E-12 Note: One successful gmin step
Note: True gmin stepping completed
pm                  =  6.421647e+01
Doing analysis at TEMP = 85.000000 and TNOM = 27.000000


No. of Data Rows : 91
psrr100             =  -4.709781e+01
psrr100k            =  -2.439784e+01
Doing analysis at TEMP = 85.000000 and TNOM = 27.000000


No. of Data Rows : 86
temp_coeff = 1.508516e+02
Doing analysis at TEMP = 85.000000 and TNOM = 27.000000


No. of Data Rows : 141
vldo_sup_2          =  1.809907e+00
vldo_sup_2_8        =  1.812160e+00
line_reg = 2.816250e-03
Note: No ".plot", ".print", or ".fourier" lines; no simulations run
vin                 =  1.764117e+00
dropout = 1.170000e-04
