 Reference value :  0.00000e+00
No compatibility mode selected!


Circuit: * ldo netlist 

Doing analysis at TEMP = 85.000000 and TNOM = 27.000000


No. of Data Rows : 1
bg_out = 1.090583e+00
inn = 1.049508e+00
inp = 1.049454e+00
l1#branch = 0.000000e+00
ldo_out = 1.792594e+00
m.xm1.msky130_fd_pr__nfet_g5v0d10v5#body = 2.633347e-11
m.xm1.msky130_fd_pr__nfet_g5v0d10v5#dbody = 4.919732e-11
m.xm1.msky130_fd_pr__nfet_g5v0d10v5#sbody = 2.980309e-11
m.xm2.msky130_fd_pr__pfet_g5v0d10v5#body = 2.100000e+00
m.xm2.msky130_fd_pr__pfet_g5v0d10v5#dbody = 2.100000e+00
m.xm2.msky130_fd_pr__pfet_g5v0d10v5#sbody = 2.100000e+00
m.xm3.msky130_fd_pr__pfet_g5v0d10v5#body = 2.100000e+00
m.xm3.msky130_fd_pr__pfet_g5v0d10v5#dbody = 2.100000e+00
m.xm3.msky130_fd_pr__pfet_g5v0d10v5#sbody = 2.100000e+00
m.xm4.msky130_fd_pr__pfet_g5v0d10v5#body = 2.100000e+00
m.xm4.msky130_fd_pr__pfet_g5v0d10v5#dbody = 2.100000e+00
m.xm4.msky130_fd_pr__pfet_g5v0d10v5#sbody = 2.100000e+00
m.xm5.msky130_fd_pr__pfet_g5v0d10v5#body = 2.100000e+00
m.xm5.msky130_fd_pr__pfet_g5v0d10v5#dbody = 2.100000e+00
m.xm5.msky130_fd_pr__pfet_g5v0d10v5#sbody = 2.100000e+00
m.xm6.msky130_fd_pr__nfet_g5v0d10v5#body = 1.926194e-11
m.xm6.msky130_fd_pr__nfet_g5v0d10v5#dbody = 4.815474e-11
m.xm6.msky130_fd_pr__nfet_g5v0d10v5#sbody = 9.631081e-12
m.xm7.msky130_fd_pr__pfet_g5v0d10v5#body = 2.100000e+00
m.xm7.msky130_fd_pr__pfet_g5v0d10v5#dbody = 2.100000e+00
m.xm7.msky130_fd_pr__pfet_g5v0d10v5#sbody = 2.100000e+00
m.xm8.msky130_fd_pr__pfet_g5v0d10v5#body = 2.100000e+00
m.xm8.msky130_fd_pr__pfet_g5v0d10v5#dbody = 2.100000e+00
m.xm8.msky130_fd_pr__pfet_g5v0d10v5#sbody = 2.100000e+00
m.xm9.msky130_fd_pr__nfet_g5v0d10v5#body = 2.444128e-11
m.xm9.msky130_fd_pr__nfet_g5v0d10v5#dbody = 4.737055e-11
m.xm9.msky130_fd_pr__nfet_g5v0d10v5#sbody = 2.595328e-11
m.xm10.msky130_fd_pr__nfet_g5v0d10v5#body = 2.418417e-11
m.xm10.msky130_fd_pr__nfet_g5v0d10v5#dbody = 4.672777e-11
m.xm10.msky130_fd_pr__nfet_g5v0d10v5#sbody = 2.582473e-11
m.xm11.msky130_fd_pr__pfet_g5v0d10v5#body = 2.100000e+00
m.xm11.msky130_fd_pr__pfet_g5v0d10v5#dbody = 2.100000e+00
m.xm11.msky130_fd_pr__pfet_g5v0d10v5#sbody = 2.100000e+00
m.xm12.msky130_fd_pr__pfet_g5v0d10v5#body = 2.100000e+00
m.xm12.msky130_fd_pr__pfet_g5v0d10v5#dbody = 2.100000e+00
m.xm12.msky130_fd_pr__pfet_g5v0d10v5#sbody = 2.100000e+00
m.xm13.msky130_fd_pr__nfet_g5v0d10v5#body = 5.219213e-12
m.xm13.msky130_fd_pr__nfet_g5v0d10v5#dbody = 1.304797e-11
m.xm13.msky130_fd_pr__nfet_g5v0d10v5#sbody = 2.609671e-12
m.xm14.msky130_fd_pr__pfet_g5v0d10v5#body = 2.100000e+00
m.xm14.msky130_fd_pr__pfet_g5v0d10v5#dbody = 2.100000e+00
m.xm14.msky130_fd_pr__pfet_g5v0d10v5#sbody = 2.100000e+00
m.xm15.msky130_fd_pr__nfet_g5v0d10v5#body = 1.139981e-14
m.xm15.msky130_fd_pr__nfet_g5v0d10v5#dbody = 2.849881e-14
m.xm15.msky130_fd_pr__nfet_g5v0d10v5#sbody = 5.700627e-15
m.xm16.msky130_fd_pr__nfet_g5v0d10v5#body = 4.987146e-11
m.xm16.msky130_fd_pr__nfet_g5v0d10v5#dbody = 8.793834e-11
m.xm16.msky130_fd_pr__nfet_g5v0d10v5#sbody = 6.167604e-11
m.xm17.msky130_fd_pr__pfet_g5v0d10v5#body = 2.100000e+00
m.xm17.msky130_fd_pr__pfet_g5v0d10v5#dbody = 2.100000e+00
m.xm17.msky130_fd_pr__pfet_g5v0d10v5#sbody = 2.100000e+00
m.xm18.msky130_fd_pr__nfet_g5v0d10v5#body = 2.089255e-11
m.xm18.msky130_fd_pr__nfet_g5v0d10v5#dbody = 5.221139e-11
m.xm18.msky130_fd_pr__nfet_g5v0d10v5#sbody = 1.044635e-11
m.xm19.msky130_fd_pr__nfet_g5v0d10v5#body = 2.640297e-11
m.xm19.msky130_fd_pr__nfet_g5v0d10v5#dbody = 4.937106e-11
m.xm19.msky130_fd_pr__nfet_g5v0d10v5#sbody = 2.983784e-11
m.xm20.msky130_fd_pr__nfet_g5v0d10v5#body = 1.267020e-11
m.xm20.msky130_fd_pr__nfet_g5v0d10v5#dbody = 3.167542e-11
m.xm20.msky130_fd_pr__nfet_g5v0d10v5#sbody = 6.335173e-12
m.xm22.msky130_fd_pr__nfet_g5v0d10v5#body = 1.161173e-11
m.xm22.msky130_fd_pr__nfet_g5v0d10v5#dbody = 2.902923e-11
m.xm22.msky130_fd_pr__nfet_g5v0d10v5#sbody = 5.805972e-12
m.xm24.msky130_fd_pr__pfet_g5v0d10v5#body = 2.100000e+00
m.xm24.msky130_fd_pr__pfet_g5v0d10v5#dbody = 2.100000e+00
m.xm24.msky130_fd_pr__pfet_g5v0d10v5#sbody = 2.100000e+00
m.xm26.msky130_fd_pr__pfet_g5v0d10v5#body = 2.100000e+00
m.xm26.msky130_fd_pr__pfet_g5v0d10v5#dbody = 2.100000e+00
m.xm26.msky130_fd_pr__pfet_g5v0d10v5#sbody = 2.100000e+00
mir = 1.021119e+00
net1 = 6.211103e-01
net2 = 2.204137e-05
net3 = 6.945543e-01
net4 = 2.456101e-01
net5 = 1.026679e+00
net6 = 8.572031e-01
net7 = 6.944995e-01
net8 = 1.097145e+00
net9 = 1.117714e+00
net10 = 2.611352e-01
net11 = 1.514145e+00
net12 = 1.514145e+00
net13 = 0.000000e+00
out = 1.514145e+00
pos = 1.090837e+00
q.xq2.qsky130_fd_pr__pnp_05v5_w0p68l0p68#collcx = 2.895172e-03
q.xq3.qsky130_fd_pr__pnp_05v5_w0p68l0p68#collcx = 3.641798e-04
q.xq4.qsky130_fd_pr__pnp_05v5_w0p68l0p68#collcx = 3.641798e-04
q.xq8.qsky130_fd_pr__pnp_05v5_w0p68l0p68#collcx = 3.641798e-04
q.xq10.qsky130_fd_pr__pnp_05v5_w0p68l0p68#collcx = 3.641798e-04
q.xq12.qsky130_fd_pr__pnp_05v5_w0p68l0p68#collcx = 3.641798e-04
q.xq14.qsky130_fd_pr__pnp_05v5_w0p68l0p68#collcx = 3.641798e-04
q.xq16.qsky130_fd_pr__pnp_05v5_w0p68l0p68#collcx = 3.641798e-04
q.xq18.qsky130_fd_pr__pnp_05v5_w0p68l0p68#collcx = 3.641798e-04
vb = 8.571530e-01
vdd = 2.100000e+00
vs#branch = -1.82570e-04
vt#branch = 0.000000e+00
xc1.a = 0.000000e+00
xc1.b1 = 0.000000e+00
xc3.a = 1.514145e+00
xc3.b1 = 1.514145e+00
xr1.xsky130_fd_pr__res_xhigh_po_0p69.ra = 7.028783e-01
xr2.xsky130_fd_pr__res_xhigh_po_0p69.ra = 7.029331e-01
xr3.xsky130_fd_pr__res_xhigh_po_0p69.ra = 5.097520e-03
xr4.xsky130_fd_pr__res_xhigh_po_0p69.ra = 6.244850e-01
xr5.xsky130_fd_pr__res_xhigh_po_0p69.ra = 5.097095e-03
xr6.xsky130_fd_pr__res_xhigh_po_0p69.ra = 8.855044e-03
xr7.xsky130_fd_pr__res_xhigh_po_0p69.ra = 1.514145e+00
xr8.xsky130_fd_pr__res_xhigh_po_0p69.ra = 1.104295e+00
xr9.xsky130_fd_pr__res_xhigh_po_0p69.ra = 1.389164e-02
Doing analysis at TEMP = 85.000000 and TNOM = 27.000000


No. of Data Rows : 91
Note: Starting true gmin stepping
Trying gmin =   1.0000E-03 Note: One successful gmin step
Trying gmin =   1.0000E-04 Note: One successful gmin step
Trying gmin =   1.0000E-05 Note: One successful gmin step
Trying gmin =   1.0000E-06 Note: One successful gmin step
Trying gmin =   1.0000E-07 Note: One successful gmin step
Trying gmin =   1.0000E-08 Warning: Further gmin increment
Trying gmin =   5.6234E-08 Warning: Further gmin increment
Trying gmin =   8.6596E-08 Warning: Further gmin increment
Trying gmin =   9.6466E-08 Note: One successful gmin step
Trying gmin =   9.1398E-08 Note: One successful gmin step
Trying gmin =   8.8965E-08 Note: One successful gmin step
Trying gmin =   8.5436E-08 Note: One successful gmin step
Trying gmin =   8.0403E-08 Note: One successful gmin step
Trying gmin =   7.3404E-08 Note: One successful gmin step
Trying gmin =   7.0137E-08 Note: One successful gmin step
Trying gmin =   6.5506E-08 Note: One successful gmin step
Trying gmin =   5.9128E-08 Note: One successful gmin step
Trying gmin =   5.0705E-08 Note: One successful gmin step
Trying gmin =   4.0266E-08 Note: One successful gmin step
Trying gmin =   2.8495E-08 Note: One successful gmin step
Trying gmin =   1.6963E-08 Note: One successful gmin step
Trying gmin =   7.7917E-09 Note: One successful gmin step
Trying gmin =   2.4255E-09 Note: One successful gmin step
Trying gmin =   4.2129E-10 Note: One successful gmin step
Trying gmin =   4.2129E-11 Note: One successful gmin step
Trying gmin =   4.2129E-12 Note: One successful gmin step
Trying gmin =   1.0000E-12 Note: One successful gmin step
Note: True gmin stepping completed
 Reference value :  2.80000e+00Note: Starting true gmin stepping
Trying gmin =   1.0000E-03 Note: One successful gmin step
Trying gmin =   1.0000E-04 Note: One successful gmin step
Trying gmin =   1.0000E-05 Note: One successful gmin step
Trying gmin =   1.0000E-06 Note: One successful gmin step
Trying gmin =   1.0000E-07 Note: One successful gmin step
Trying gmin =   1.0000E-08 Warning: Further gmin increment
Trying gmin =   5.6234E-08 Note: One successful gmin step
Trying gmin =   2.3714E-08 Note: One successful gmin step
Trying gmin =   6.4938E-09 Warning: Further gmin increment
Trying gmin =   1.7154E-08 Note: One successful gmin step
Trying gmin =   1.0554E-08 Note: One successful gmin step
Trying gmin =   5.0937E-09 Note: One successful gmin step
Trying gmin =   1.7077E-09 Note: One successful gmin step
Trying gmin =   3.3152E-10 Note: One successful gmin step
Trying gmin =   3.3152E-11 Note: One successful gmin step
Trying gmin =   3.3152E-12 Note: One successful gmin step
Trying gmin =   1.0000E-12 Note: One successful gmin step
Note: True gmin stepping completed
 Reference value :  1.08000e+00Note: Starting true gmin stepping
Trying gmin =   1.0000E-03 Note: One successful gmin step
Trying gmin =   1.0000E-04 Note: One successful gmin step
Trying gmin =   1.0000E-05 Note: One successful gmin step
Trying gmin =   1.0000E-06 Note: One successful gmin step
Trying gmin =   1.0000E-07 Note: One successful gmin step
Trying gmin =   1.0000E-08 Note: One successful gmin step
Trying gmin =   3.1623E-09 Warning: Further gmin increment
Trying gmin =   7.4989E-09 Note: One successful gmin step
Trying gmin =   4.8697E-09 Note: One successful gmin step
Trying gmin =   2.5483E-09 Note: One successful gmin step
Trying gmin =   9.6466E-10 Note: One successful gmin step
Trying gmin =   2.2468E-10 Note: One successful gmin step
Trying gmin =   2.5255E-11 Note: One successful gmin step
Trying gmin =   2.5255E-12 Note: One successful gmin step
Trying gmin =   1.0000E-12 Note: One successful gmin step
Note: True gmin stepping completed
pm                  =  6.818545e+01
Doing analysis at TEMP = 85.000000 and TNOM = 27.000000


No. of Data Rows : 91
psrr100             =  -5.047526e+01
psrr100k            =  -2.677519e+01
Doing analysis at TEMP = 85.000000 and TNOM = 27.000000


No. of Data Rows : 86
temp_coeff = 5.531085e+01
Doing analysis at TEMP = 85.000000 and TNOM = 27.000000


No. of Data Rows : 141
vldo_sup_2          =  1.792258e+00
vldo_sup_2_8        =  1.793836e+00
line_reg = 1.972500e-03
Note: No ".plot", ".print", or ".fourier" lines; no simulations run
vin                 =  1.764115e+00
dropout = 1.150000e-04
