 Reference value :  0.00000e+00
No compatibility mode selected!


Circuit: * ldo netlist 

Doing analysis at TEMP = 27.000000 and TNOM = 27.000000


No. of Data Rows : 1
bg_out = 1.198608e+00
inn = 1.233457e+00
inp = 1.233386e+00
l1#branch = 0.000000e+00
ldo_out = 1.803769e+00
m.xm1.msky130_fd_pr__nfet_g5v0d10v5#body = 1.325864e-11
m.xm1.msky130_fd_pr__nfet_g5v0d10v5#dbody = 2.671917e-11
m.xm1.msky130_fd_pr__nfet_g5v0d10v5#sbody = 1.305674e-11
m.xm2.msky130_fd_pr__pfet_g5v0d10v5#body = 2.100000e+00
m.xm2.msky130_fd_pr__pfet_g5v0d10v5#dbody = 2.100000e+00
m.xm2.msky130_fd_pr__pfet_g5v0d10v5#sbody = 2.100000e+00
m.xm3.msky130_fd_pr__pfet_g5v0d10v5#body = 2.100000e+00
m.xm3.msky130_fd_pr__pfet_g5v0d10v5#dbody = 2.100000e+00
m.xm3.msky130_fd_pr__pfet_g5v0d10v5#sbody = 2.100000e+00
m.xm4.msky130_fd_pr__pfet_g5v0d10v5#body = 2.100000e+00
m.xm4.msky130_fd_pr__pfet_g5v0d10v5#dbody = 2.100000e+00
m.xm4.msky130_fd_pr__pfet_g5v0d10v5#sbody = 2.100000e+00
m.xm5.msky130_fd_pr__pfet_g5v0d10v5#body = 2.100000e+00
m.xm5.msky130_fd_pr__pfet_g5v0d10v5#dbody = 2.100000e+00
m.xm5.msky130_fd_pr__pfet_g5v0d10v5#sbody = 2.100000e+00
m.xm6.msky130_fd_pr__nfet_g5v0d10v5#body = 1.228521e-11
m.xm6.msky130_fd_pr__nfet_g5v0d10v5#dbody = 3.071303e-11
m.xm6.msky130_fd_pr__nfet_g5v0d10v5#sbody = 6.142612e-12
m.xm7.msky130_fd_pr__pfet_g5v0d10v5#body = 2.100000e+00
m.xm7.msky130_fd_pr__pfet_g5v0d10v5#dbody = 2.100000e+00
m.xm7.msky130_fd_pr__pfet_g5v0d10v5#sbody = 2.100000e+00
m.xm8.msky130_fd_pr__pfet_g5v0d10v5#body = 2.100000e+00
m.xm8.msky130_fd_pr__pfet_g5v0d10v5#dbody = 2.100000e+00
m.xm8.msky130_fd_pr__pfet_g5v0d10v5#sbody = 2.100000e+00
m.xm9.msky130_fd_pr__nfet_g5v0d10v5#body = 1.399331e-11
m.xm9.msky130_fd_pr__nfet_g5v0d10v5#dbody = 2.956084e-11
m.xm9.msky130_fd_pr__nfet_g5v0d10v5#sbody = 1.241909e-11
m.xm10.msky130_fd_pr__nfet_g5v0d10v5#body = 1.374651e-11
m.xm10.msky130_fd_pr__nfet_g5v0d10v5#dbody = 2.894384e-11
m.xm10.msky130_fd_pr__nfet_g5v0d10v5#sbody = 1.229569e-11
m.xm11.msky130_fd_pr__pfet_g5v0d10v5#body = 2.100000e+00
m.xm11.msky130_fd_pr__pfet_g5v0d10v5#dbody = 2.100000e+00
m.xm11.msky130_fd_pr__pfet_g5v0d10v5#sbody = 2.100000e+00
m.xm12.msky130_fd_pr__pfet_g5v0d10v5#body = 2.100000e+00
m.xm12.msky130_fd_pr__pfet_g5v0d10v5#dbody = 2.100000e+00
m.xm12.msky130_fd_pr__pfet_g5v0d10v5#sbody = 2.100000e+00
m.xm13.msky130_fd_pr__nfet_g5v0d10v5#body = 2.709859e-12
m.xm13.msky130_fd_pr__nfet_g5v0d10v5#dbody = 6.774636e-12
m.xm13.msky130_fd_pr__nfet_g5v0d10v5#sbody = 1.354940e-12
m.xm14.msky130_fd_pr__pfet_g5v0d10v5#body = 2.100000e+00
m.xm14.msky130_fd_pr__pfet_g5v0d10v5#dbody = 2.100000e+00
m.xm14.msky130_fd_pr__pfet_g5v0d10v5#sbody = 2.100000e+00
m.xm15.msky130_fd_pr__nfet_g5v0d10v5#body = 6.222405e-18
m.xm15.msky130_fd_pr__nfet_g5v0d10v5#dbody = 1.555572e-17
m.xm15.msky130_fd_pr__nfet_g5v0d10v5#sbody = 3.111498e-18
m.xm16.msky130_fd_pr__nfet_g5v0d10v5#body = 4.167694e-11
m.xm16.msky130_fd_pr__nfet_g5v0d10v5#dbody = 7.334720e-11
m.xm16.msky130_fd_pr__nfet_g5v0d10v5#sbody = 5.168362e-11
m.xm17.msky130_fd_pr__pfet_g5v0d10v5#body = 2.100000e+00
m.xm17.msky130_fd_pr__pfet_g5v0d10v5#dbody = 2.100000e+00
m.xm17.msky130_fd_pr__pfet_g5v0d10v5#sbody = 2.100000e+00
m.xm18.msky130_fd_pr__nfet_g5v0d10v5#body = 1.527348e-11
m.xm18.msky130_fd_pr__nfet_g5v0d10v5#dbody = 3.818367e-11
m.xm18.msky130_fd_pr__nfet_g5v0d10v5#sbody = 7.636752e-12
m.xm19.msky130_fd_pr__nfet_g5v0d10v5#body = 1.334201e-11
m.xm19.msky130_fd_pr__nfet_g5v0d10v5#dbody = 2.692761e-11
m.xm19.msky130_fd_pr__nfet_g5v0d10v5#sbody = 1.309843e-11
m.xm20.msky130_fd_pr__nfet_g5v0d10v5#body = 1.286243e-11
m.xm20.msky130_fd_pr__nfet_g5v0d10v5#dbody = 3.215605e-11
m.xm20.msky130_fd_pr__nfet_g5v0d10v5#sbody = 6.431226e-12
m.xm22.msky130_fd_pr__nfet_g5v0d10v5#body = 3.216424e-12
m.xm22.msky130_fd_pr__nfet_g5v0d10v5#dbody = 8.041054e-12
m.xm22.msky130_fd_pr__nfet_g5v0d10v5#sbody = 1.608217e-12
m.xm24.msky130_fd_pr__pfet_g5v0d10v5#body = 2.100000e+00
m.xm24.msky130_fd_pr__pfet_g5v0d10v5#dbody = 2.100000e+00
m.xm24.msky130_fd_pr__pfet_g5v0d10v5#sbody = 2.100000e+00
m.xm26.msky130_fd_pr__pfet_g5v0d10v5#body = 2.100000e+00
m.xm26.msky130_fd_pr__pfet_g5v0d10v5#dbody = 2.100000e+00
m.xm26.msky130_fd_pr__pfet_g5v0d10v5#sbody = 2.100000e+00
mir = 8.032446e-01
net1 = 7.328917e-01
net2 = 4.787343e-07
net3 = 7.924275e-01
net4 = 2.567475e-01
net5 = 8.099147e-01
net6 = 9.822505e-01
net7 = 7.923549e-01
net8 = 8.825827e-01
net9 = 9.023268e-01
net10 = 2.166565e-01
net11 = 1.221746e+00
net12 = 1.221746e+00
net13 = 0.000000e+00
out = 1.221746e+00
pos = 1.198839e+00
q.xq2.qsky130_fd_pr__pnp_05v5_w0p68l0p68#collcx = 2.119869e-03
q.xq3.qsky130_fd_pr__pnp_05v5_w0p68l0p68#collcx = 2.689823e-04
q.xq4.qsky130_fd_pr__pnp_05v5_w0p68l0p68#collcx = 2.689823e-04
q.xq8.qsky130_fd_pr__pnp_05v5_w0p68l0p68#collcx = 2.689823e-04
q.xq10.qsky130_fd_pr__pnp_05v5_w0p68l0p68#collcx = 2.689823e-04
q.xq12.qsky130_fd_pr__pnp_05v5_w0p68l0p68#collcx = 2.689823e-04
q.xq14.qsky130_fd_pr__pnp_05v5_w0p68l0p68#collcx = 2.689823e-04
q.xq16.qsky130_fd_pr__pnp_05v5_w0p68l0p68#collcx = 2.689823e-04
q.xq18.qsky130_fd_pr__pnp_05v5_w0p68l0p68#collcx = 2.689823e-04
vb = 1.028862e+00
vdd = 2.100000e+00
vs#branch = -1.81393e-04
vt#branch = 0.000000e+00
xc1.a = 0.000000e+00
xc1.b1 = 0.000000e+00
xc3.a = 1.221746e+00
xc3.b1 = 1.221746e+00
xr1.xsky130_fd_pr__res_xhigh_po_0p69.ra = 7.952647e-01
xr2.xsky130_fd_pr__res_xhigh_po_0p69.ra = 7.953373e-01
xr3.xsky130_fd_pr__res_xhigh_po_0p69.ra = 1.980260e-03
xr4.xsky130_fd_pr__res_xhigh_po_0p69.ra = 7.338604e-01
xr5.xsky130_fd_pr__res_xhigh_po_0p69.ra = 1.980067e-03
xr6.xsky130_fd_pr__res_xhigh_po_0p69.ra = 3.094735e-03
xr7.xsky130_fd_pr__res_xhigh_po_0p69.ra = 1.221746e+00
xr8.xsky130_fd_pr__res_xhigh_po_0p69.ra = 1.203982e+00
xr9.xsky130_fd_pr__res_xhigh_po_0p69.ra = 5.394869e-03
Doing analysis at TEMP = 27.000000 and TNOM = 27.000000


No. of Data Rows : 91
Error: -1.92797e+171, 2 out of range for ^
Error: -1.92797e+171, 2 out of range for ^
Note: Starting true gmin stepping
Trying gmin =   1.0000E-03 Note: One successful gmin step
Trying gmin =   1.0000E-04 Note: One successful gmin step
Trying gmin =   1.0000E-05 Note: One successful gmin step
Trying gmin =   1.0000E-06 Note: One successful gmin step
Trying gmin =   1.0000E-07 Note: One successful gmin step
Trying gmin =   1.0000E-08 Warning: Further gmin increment
Trying gmin =   5.6234E-08 Warning: Further gmin increment
Trying gmin =   8.6596E-08 Note: One successful gmin step
Trying gmin =   6.9783E-08 Warning: Further gmin increment
Trying gmin =   8.2047E-08 Note: One successful gmin step
Trying gmin =   7.5667E-08 Note: One successful gmin step
Trying gmin =   6.7015E-08 Warning: Further gmin increment
Trying gmin =   7.3404E-08 Warning: Further gmin increment
Trying gmin =   7.5095E-08 Warning: Further gmin increment
Trying gmin =   7.5524E-08 Note: One successful gmin step
Trying gmin =   7.5309E-08 Note: One successful gmin step
Trying gmin =   7.4988E-08 Warning: Further gmin increment
Trying gmin =   7.5229E-08 Note: One successful gmin step
Trying gmin =   7.5108E-08 Warning: Further gmin increment
Trying gmin =   7.5198E-08 Note: One successful gmin step
Trying gmin =   7.5153E-08 Warning: Further gmin increment
Trying gmin =   7.5187E-08 Note: One successful gmin step
Trying gmin =   7.5170E-08 Warning: Further gmin increment
Trying gmin =   7.5183E-08 Note: One successful gmin step
Trying gmin =   7.5177E-08 Warning: Further gmin increment
Trying gmin =   7.5181E-08 Note: One successful gmin step
Trying gmin =   7.5179E-08 Warning: Last gmin step failed
Warning: True gmin stepping failed
Note: Starting dynamic gmin stepping
Trying gmin =   1.0000E-03 Note: One successful gmin step
Trying gmin =   1.0000E-04 Note: One successful gmin step
Trying gmin =   1.0000E-05 Warning: Further gmin increment
Trying gmin =   5.6234E-05 Note: One successful gmin step
Trying gmin =   2.3714E-05 Note: One successful gmin step
Trying gmin =   6.4938E-06 Warning: Further gmin increment
Trying gmin =   1.7154E-05 Note: One successful gmin step
Trying gmin =   1.0554E-05 Warning: Further gmin increment
Trying gmin =   1.5193E-05 Note: One successful gmin step
Trying gmin =   1.2663E-05 Warning: Further gmin increment
Trying gmin =   1.4517E-05 Note: One successful gmin step
Trying gmin =   1.3558E-05 Note: One successful gmin step
Trying gmin =   1.2238E-05 Warning: Further gmin increment
Trying gmin =   1.3215E-05 Note: One successful gmin step
Trying gmin =   1.2717E-05 Note: One successful gmin step
Trying gmin =   1.2005E-05 Note: One successful gmin step
Trying gmin =   1.1011E-05 Note: One successful gmin step
Trying gmin =   9.6718E-06 Note: One successful gmin step
Trying gmin =   7.9623E-06 Note: One successful gmin step
Trying gmin =   5.9475E-06 Note: One successful gmin step
Trying gmin =   3.8395E-06 Note: One successful gmin step
Trying gmin =   1.9915E-06 Note: One successful gmin step
Trying gmin =   7.4397E-07 Note: One successful gmin step
Trying gmin =   1.6987E-07 Warning: Further gmin increment
Trying gmin =   5.1428E-07 Note: One successful gmin step
Trying gmin =   2.9557E-07 Warning: Further gmin increment
Trying gmin =   4.4778E-07 Note: One successful gmin step
Trying gmin =   3.6380E-07 Note: One successful gmin step
Trying gmin =   2.6641E-07 Warning: Further gmin increment
Trying gmin =   3.3654E-07 Warning: Further gmin increment
Trying gmin =   3.5678E-07 Note: One successful gmin step
Trying gmin =   3.4651E-07 Warning: Further gmin increment
Trying gmin =   3.5418E-07 Note: One successful gmin step
Trying gmin =   3.5033E-07 Warning: Further gmin increment
Trying gmin =   3.5322E-07 Note: One successful gmin step
Trying gmin =   3.5177E-07 Warning: Further gmin increment
Trying gmin =   3.5285E-07 Note: One successful gmin step
Trying gmin =   3.5231E-07 Note: One successful gmin step
Trying gmin =   3.5150E-07 Warning: Further gmin increment
Trying gmin =   3.5211E-07 Note: One successful gmin step
Trying gmin =   3.5180E-07 Warning: Further gmin increment
Trying gmin =   3.5203E-07 Note: One successful gmin step
Trying gmin =   3.5192E-07 Warning: Further gmin increment
Trying gmin =   3.5200E-07 Note: One successful gmin step
Trying gmin =   3.5196E-07 Note: One successful gmin step
Trying gmin =   3.5189E-07 Warning: Further gmin increment
Trying gmin =   3.5194E-07 Note: One successful gmin step
Trying gmin =   3.5192E-07 Warning: Further gmin increment
Trying gmin =   3.5194E-07 Warning: Last gmin step failed
Warning: Dynamic gmin stepping failed
Note: Starting source stepping
Supplies reduced to   0.0000% Note: One successful source step
Supplies reduced to   0.1000% Note: One successful source step
Supplies reduced to   0.2000% Note: One successful source step
Supplies reduced to   0.3500% Note: One successful source step
Supplies reduced to   0.5750% Note: One successful source step
Supplies reduced to   0.9125% Note: One successful source step
Supplies reduced to   1.4188% Note: One successful source step
Supplies reduced to   2.1781% Note: One successful source step
Supplies reduced to   3.3172% Note: One successful source step
Supplies reduced to   5.0258% Note: One successful source step
Supplies reduced to   7.5887% Note: One successful source step
Supplies reduced to  11.4330% Note: One successful source step
Supplies reduced to  17.1995% Note: One successful source step
Supplies reduced to  25.8493% Note: One successful source step
Supplies reduced to  38.8239% Supplies reduced to  25.8493% Note: One successful source step
Supplies reduced to  26.8493% Note: One successful source step
Supplies reduced to  28.3493% Note: One successful source step
Supplies reduced to  30.5993% Note: One successful source step
Supplies reduced to  33.9743% Supplies reduced to  30.5993% Note: One successful source step
Supplies reduced to  31.1055% Note: One successful source step
Supplies reduced to  31.8649% Note: One successful source step
Supplies reduced to  33.0040% Note: One successful source step
Supplies reduced to  34.7125% Note: One successful source step
Supplies reduced to  37.2754% Note: One successful source step
Supplies reduced to  41.1198% Note: One successful source step
Supplies reduced to  46.8863% Supplies reduced to  41.1198% Note: One successful source step
Supplies reduced to  41.9848% Note: One successful source step
Supplies reduced to  43.2822% Note: One successful source step
Supplies reduced to  45.2284% Note: One successful source step
Supplies reduced to  48.1477% Note: One successful source step
Supplies reduced to  52.5266% Note: One successful source step
Supplies reduced to  59.0950% Note: One successful source step
Supplies reduced to  68.9477% Note: One successful source step
Supplies reduced to  83.7266% Supplies reduced to  68.9477% Note: One successful source step
Supplies reduced to  69.9477% Supplies reduced to  68.9477% Note: One successful source step
Supplies reduced to  69.0977% Note: One successful source step
Supplies reduced to  69.3227% Note: One successful source step
Supplies reduced to  69.6602% Note: One successful source step
Supplies reduced to  70.1664% Supplies reduced to  69.6602% Note: One successful source step
Supplies reduced to  69.7361% Note: One successful source step
Supplies reduced to  69.8500% Supplies reduced to  69.7361% Note: One successful source step
Supplies reduced to  69.7532% Note: One successful source step
Supplies reduced to  69.7788% Supplies reduced to  69.7532% Note: One successful source step
Supplies reduced to  69.7570% Note: One successful source step
Supplies reduced to  69.7628% Note: One successful source step
Supplies reduced to  69.7714% Supplies reduced to  69.7628% Note: One successful source step
Supplies reduced to  69.7641% Note: One successful source step
Supplies reduced to  69.7660% Note: One successful source step
Supplies reduced to  69.7690% Note: One successful source step
Supplies reduced to  69.7733% Supplies reduced to  69.7690% Note: One successful source step
Supplies reduced to  69.7696% Supplies reduced to  69.7690% Note: One successful source step
Supplies reduced to  69.7691% Note: One successful source step
Supplies reduced to  69.7692% Note: One successful source step
Supplies reduced to  69.7694% Note: One successful source step
Supplies reduced to  69.7698% Supplies reduced to  69.7694% Note: One successful source step
Supplies reduced to  69.7695% Note: One successful source step
Supplies reduced to  69.7696% Supplies reduced to  69.7695% Note: One successful source step
Supplies reduced to  69.7695% Note: One successful source step
Supplies reduced to  69.7695% Warning: source stepping failed
doAnalyses: Too many iterations without convergence

dc simulation(s) aborted
Error(parse.c--checkvalid): vldo_sup_2_8: zero length vector.
Error: RHS "abs((vldo_sup_2_8-vldo_sup_2)/0.8)" invalid
Error(parse.c--checkvalid): line_reg: zero length vector.
Error(parse.c--checkvalid): vin: zero length vector.
Error: RHS "vin-1.764" invalid
Error(parse.c--checkvalid): dropout: zero length vector.
Error: no such vector dropout
Note: No ".plot", ".print", or ".fourier" lines; no simulations run
pm                  =  5.652638e+01
Doing analysis at TEMP = 27.000000 and TNOM = 27.000000


No. of Data Rows : 91
psrr100             =  -6.683275e+01
psrr100k            =  -2.559560e+01
Doing analysis at TEMP = 27.000000 and TNOM = 27.000000


No. of Data Rows : 86
temp_coeff = 1.674255e+02
Doing analysis at TEMP = 27.000000 and TNOM = 27.000000


Error: measure  vldo_sup_2  (AT) : out of interval
 meas dc vldo_sup_2 find ldo_out at=2 failed!


Error: measure  vldo_sup_2_8  (AT) : out of interval
 meas dc vldo_sup_2_8 find ldo_out at=2.8 failed!


Error: measure  vin  (WHEN) : out of interval
 meas dc vin when v(ldo_out)=1.764 failed!

