 Reference value :  0.00000e+00
No compatibility mode selected!


Circuit: * ldo netlist 

Doing analysis at TEMP = 27.000000 and TNOM = 27.000000


No. of Data Rows : 1
bg_out = 1.097412e+00
inn = 1.141857e+00
inp = 1.141812e+00
l1#branch = 0.000000e+00
ldo_out = 1.803725e+00
m.xm1.msky130_fd_pr__nfet_g5v0d10v5#body = 1.634760e-11
m.xm1.msky130_fd_pr__nfet_g5v0d10v5#dbody = 3.517329e-11
m.xm1.msky130_fd_pr__nfet_g5v0d10v5#sbody = 1.386950e-11
m.xm2.msky130_fd_pr__pfet_g5v0d10v5#body = 2.300000e+00
m.xm2.msky130_fd_pr__pfet_g5v0d10v5#dbody = 2.300000e+00
m.xm2.msky130_fd_pr__pfet_g5v0d10v5#sbody = 2.300000e+00
m.xm3.msky130_fd_pr__pfet_g5v0d10v5#body = 2.300000e+00
m.xm3.msky130_fd_pr__pfet_g5v0d10v5#dbody = 2.300000e+00
m.xm3.msky130_fd_pr__pfet_g5v0d10v5#sbody = 2.300000e+00
m.xm4.msky130_fd_pr__pfet_g5v0d10v5#body = 2.300000e+00
m.xm4.msky130_fd_pr__pfet_g5v0d10v5#dbody = 2.300000e+00
m.xm4.msky130_fd_pr__pfet_g5v0d10v5#sbody = 2.300000e+00
m.xm5.msky130_fd_pr__pfet_g5v0d10v5#body = 2.300000e+00
m.xm5.msky130_fd_pr__pfet_g5v0d10v5#dbody = 2.300000e+00
m.xm5.msky130_fd_pr__pfet_g5v0d10v5#sbody = 2.300000e+00
m.xm6.msky130_fd_pr__nfet_g5v0d10v5#body = 1.179247e-11
m.xm6.msky130_fd_pr__nfet_g5v0d10v5#dbody = 2.948117e-11
m.xm6.msky130_fd_pr__nfet_g5v0d10v5#sbody = 5.896240e-12
m.xm7.msky130_fd_pr__pfet_g5v0d10v5#body = 2.300000e+00
m.xm7.msky130_fd_pr__pfet_g5v0d10v5#dbody = 2.300000e+00
m.xm7.msky130_fd_pr__pfet_g5v0d10v5#sbody = 2.300000e+00
m.xm8.msky130_fd_pr__pfet_g5v0d10v5#body = 2.300000e+00
m.xm8.msky130_fd_pr__pfet_g5v0d10v5#dbody = 2.300000e+00
m.xm8.msky130_fd_pr__pfet_g5v0d10v5#sbody = 2.300000e+00
m.xm9.msky130_fd_pr__nfet_g5v0d10v5#body = 1.697505e-11
m.xm9.msky130_fd_pr__nfet_g5v0d10v5#dbody = 3.785671e-11
m.xm9.msky130_fd_pr__nfet_g5v0d10v5#sbody = 1.306846e-11
m.xm10.msky130_fd_pr__nfet_g5v0d10v5#body = 1.680532e-11
m.xm10.msky130_fd_pr__nfet_g5v0d10v5#dbody = 3.743236e-11
m.xm10.msky130_fd_pr__nfet_g5v0d10v5#sbody = 1.298359e-11
m.xm11.msky130_fd_pr__pfet_g5v0d10v5#body = 2.300000e+00
m.xm11.msky130_fd_pr__pfet_g5v0d10v5#dbody = 2.300000e+00
m.xm11.msky130_fd_pr__pfet_g5v0d10v5#sbody = 2.300000e+00
m.xm12.msky130_fd_pr__pfet_g5v0d10v5#body = 2.300000e+00
m.xm12.msky130_fd_pr__pfet_g5v0d10v5#dbody = 2.300000e+00
m.xm12.msky130_fd_pr__pfet_g5v0d10v5#sbody = 2.300000e+00
m.xm13.msky130_fd_pr__nfet_g5v0d10v5#body = 2.289109e-12
m.xm13.msky130_fd_pr__nfet_g5v0d10v5#dbody = 5.722761e-12
m.xm13.msky130_fd_pr__nfet_g5v0d10v5#sbody = 1.144565e-12
m.xm14.msky130_fd_pr__pfet_g5v0d10v5#body = 2.300000e+00
m.xm14.msky130_fd_pr__pfet_g5v0d10v5#dbody = 2.300000e+00
m.xm14.msky130_fd_pr__pfet_g5v0d10v5#sbody = 2.300000e+00
m.xm15.msky130_fd_pr__nfet_g5v0d10v5#body = 4.860186e-16
m.xm15.msky130_fd_pr__nfet_g5v0d10v5#dbody = 1.215023e-15
m.xm15.msky130_fd_pr__nfet_g5v0d10v5#sbody = 2.430330e-16
m.xm16.msky130_fd_pr__nfet_g5v0d10v5#body = 4.303191e-11
m.xm16.msky130_fd_pr__nfet_g5v0d10v5#dbody = 7.902465e-11
m.xm16.msky130_fd_pr__nfet_g5v0d10v5#sbody = 5.007108e-11
m.xm17.msky130_fd_pr__pfet_g5v0d10v5#body = 2.300000e+00
m.xm17.msky130_fd_pr__pfet_g5v0d10v5#dbody = 2.300000e+00
m.xm17.msky130_fd_pr__pfet_g5v0d10v5#sbody = 2.300000e+00
m.xm18.msky130_fd_pr__nfet_g5v0d10v5#body = 9.929948e-12
m.xm18.msky130_fd_pr__nfet_g5v0d10v5#dbody = 2.482485e-11
m.xm18.msky130_fd_pr__nfet_g5v0d10v5#sbody = 4.964986e-12
m.xm19.msky130_fd_pr__nfet_g5v0d10v5#body = 1.641905e-11
m.xm19.msky130_fd_pr__nfet_g5v0d10v5#dbody = 3.535193e-11
m.xm19.msky130_fd_pr__nfet_g5v0d10v5#sbody = 1.390522e-11
m.xm20.msky130_fd_pr__nfet_g5v0d10v5#body = 1.206584e-11
m.xm20.msky130_fd_pr__nfet_g5v0d10v5#dbody = 3.016460e-11
m.xm20.msky130_fd_pr__nfet_g5v0d10v5#sbody = 6.032935e-12
m.xm22.msky130_fd_pr__nfet_g5v0d10v5#body = 2.850561e-12
m.xm22.msky130_fd_pr__nfet_g5v0d10v5#dbody = 7.126398e-12
m.xm22.msky130_fd_pr__nfet_g5v0d10v5#sbody = 1.425285e-12
m.xm24.msky130_fd_pr__pfet_g5v0d10v5#body = 2.300000e+00
m.xm24.msky130_fd_pr__pfet_g5v0d10v5#dbody = 2.300000e+00
m.xm24.msky130_fd_pr__pfet_g5v0d10v5#sbody = 2.300000e+00
m.xm26.msky130_fd_pr__pfet_g5v0d10v5#body = 2.300000e+00
m.xm26.msky130_fd_pr__pfet_g5v0d10v5#dbody = 2.300000e+00
m.xm26.msky130_fd_pr__pfet_g5v0d10v5#sbody = 2.300000e+00
mir = 1.079632e+00
net1 = 7.262592e-01
net2 = 3.739606e-05
net3 = 7.859572e-01
net4 = 2.274803e-01
net5 = 1.085348e+00
net6 = 9.428327e-01
net7 = 7.859109e-01
net8 = 1.160949e+00
net9 = 1.174528e+00
net10 = 1.829983e-01
net11 = 7.942652e-01
net12 = 7.942652e-01
net13 = 0.000000e+00
out = 7.942652e-01
pos = 1.097542e+00
q.xq2.qsky130_fd_pr__pnp_05v5_w0p68l0p68#collcx = 2.181048e-03
q.xq3.qsky130_fd_pr__pnp_05v5_w0p68l0p68#collcx = 2.747661e-04
q.xq4.qsky130_fd_pr__pnp_05v5_w0p68l0p68#collcx = 2.747661e-04
q.xq8.qsky130_fd_pr__pnp_05v5_w0p68l0p68#collcx = 2.747661e-04
q.xq10.qsky130_fd_pr__pnp_05v5_w0p68l0p68#collcx = 2.747661e-04
q.xq12.qsky130_fd_pr__pnp_05v5_w0p68l0p68#collcx = 2.747661e-04
q.xq14.qsky130_fd_pr__pnp_05v5_w0p68l0p68#collcx = 2.747661e-04
q.xq16.qsky130_fd_pr__pnp_05v5_w0p68l0p68#collcx = 2.747661e-04
q.xq18.qsky130_fd_pr__pnp_05v5_w0p68l0p68#collcx = 2.747661e-04
vb = 9.651369e-01
vdd = 2.300000e+00
vs#branch = -1.00333e-01
vt#branch = 0.000000e+00
xc1.a = 0.000000e+00
xc1.b1 = 0.000000e+00
xc3.a = 7.942652e-01
xc3.b1 = 7.942652e-01
xr1.xsky130_fd_pr__res_xhigh_po_0p69.ra = 7.913814e-01
xr2.xsky130_fd_pr__res_xhigh_po_0p69.ra = 7.914277e-01
xr3.xsky130_fd_pr__res_xhigh_po_0p69.ra = 3.785486e-03
xr4.xsky130_fd_pr__res_xhigh_po_0p69.ra = 7.280479e-01
xr5.xsky130_fd_pr__res_xhigh_po_0p69.ra = 3.785248e-03
xr6.xsky130_fd_pr__res_xhigh_po_0p69.ra = 5.806777e-03
xr7.xsky130_fd_pr__res_xhigh_po_0p69.ra = 7.942652e-01
xr8.xsky130_fd_pr__res_xhigh_po_0p69.ra = 1.106365e+00
xr9.xsky130_fd_pr__res_xhigh_po_0p69.ra = 9.107820e-03
Doing analysis at TEMP = 27.000000 and TNOM = 27.000000


No. of Data Rows : 91
Error: no such vector PM
Note: Starting true gmin stepping
Trying gmin =   1.0000E-03 Note: One successful gmin step
Trying gmin =   1.0000E-04 Note: One successful gmin step
Trying gmin =   1.0000E-05 Note: One successful gmin step
Trying gmin =   1.0000E-06 Note: One successful gmin step
Trying gmin =   1.0000E-07 Note: One successful gmin step
Trying gmin =   1.0000E-08 Warning: Further gmin increment
Trying gmin =   5.6234E-08 Warning: Further gmin increment
Trying gmin =   8.6596E-08 Warning: Further gmin increment
Trying gmin =   9.6466E-08 Warning: Further gmin increment
Trying gmin =   9.9105E-08 Note: One successful gmin step
Trying gmin =   9.7776E-08 Note: One successful gmin step
Trying gmin =   9.5818E-08 Warning: Further gmin increment
Trying gmin =   9.7283E-08 Error: -1.72239e+157, 2 out of range for ^
Warning: Further gmin increment
Trying gmin =   9.7653E-08 Warning: Further gmin increment
Trying gmin =   9.7746E-08 Note: One successful gmin step
Trying gmin =   9.7699E-08 Warning: Further gmin increment
Trying gmin =   9.7734E-08 Warning: Further gmin increment
Trying gmin =   9.7743E-08 Warning: Last gmin step failed
Warning: True gmin stepping failed
Note: Starting dynamic gmin stepping
Trying gmin =   1.0000E-03 Note: One successful gmin step
Trying gmin =   1.0000E-04 Note: One successful gmin step
Trying gmin =   1.0000E-05 Note: One successful gmin step
Trying gmin =   1.0000E-06 Note: One successful gmin step
Trying gmin =   1.0000E-07 Note: One successful gmin step
Trying gmin =   1.0000E-08 Note: One successful gmin step
Trying gmin =   1.0000E-09 Note: One successful gmin step
Trying gmin =   1.0000E-10 Note: One successful gmin step
Trying gmin =   1.0000E-11 Note: One successful gmin step
Trying gmin =   1.0000E-12 Note: One successful gmin step
Trying gmin =   1.0000E-12 Note: One successful gmin step
Note: Dynamic gmin stepping completed
 Reference value :  2.80000e+00Note: Starting true gmin stepping
Trying gmin =   1.0000E-03 Note: One successful gmin step
Trying gmin =   1.0000E-04 Note: One successful gmin step
Trying gmin =   1.0000E-05 Note: One successful gmin step
Trying gmin =   1.0000E-06 Note: One successful gmin step
Trying gmin =   1.0000E-07 Note: One successful gmin step
Trying gmin =   1.0000E-08 Note: One successful gmin step
Trying gmin =   1.0000E-09 Note: One successful gmin step
Trying gmin =   1.0000E-10 Warning: Further gmin increment
Trying gmin =   5.6234E-10 Warning: Further gmin increment
Trying gmin =   8.6596E-10 Note: One successful gmin step
Trying gmin =   7.4989E-10 Note: One successful gmin step
Trying gmin =   6.0430E-10 Note: One successful gmin step
Trying gmin =   4.3714E-10 Note: One successful gmin step
Trying gmin =   2.6896E-10 Note: One successful gmin step
Trying gmin =   1.2980E-10 Note: One successful gmin step
Trying gmin =   4.3518E-11 Note: One successful gmin step
Trying gmin =   8.4481E-12 Note: One successful gmin step
Trying gmin =   1.0000E-12 Note: One successful gmin step
Note: True gmin stepping completed
 Reference value :  1.26000e+00Note: Starting true gmin stepping
Trying gmin =   1.0000E-03 Note: One successful gmin step
Trying gmin =   1.0000E-04 Note: One successful gmin step
Trying gmin =   1.0000E-05 Note: One successful gmin step
Trying gmin =   1.0000E-06 Note: One successful gmin step
Trying gmin =   1.0000E-07 Note: One successful gmin step
Trying gmin =   1.0000E-08 Note: One successful gmin step
Trying gmin =   3.1623E-09 Note: One successful gmin step
Trying gmin =   5.6234E-10 Warning: Further gmin increment
Trying gmin =   2.0535E-09 Note: One successful gmin step
Trying gmin =   1.0746E-09 Note: One successful gmin step
Trying gmin =   5.6234E-10 Note: One successful gmin step
Trying gmin =   2.9427E-10 Note: One successful gmin step
Trying gmin =   1.1140E-10 Note: One successful gmin step
Trying gmin =   2.5946E-11 Note: One successful gmin step
Trying gmin =   2.9164E-12 Note: One successful gmin step
Trying gmin =   1.0000E-12 Note: One successful gmin step
Note: True gmin stepping completed

Error: measure  pm  (AT) : out of interval
 meas ac pm find p when vdb(ldo_out)=0 failed!

Doing analysis at TEMP = 27.000000 and TNOM = 27.000000


No. of Data Rows : 91
psrr100             =  -8.331641e+01
psrr100k            =  -2.498253e+01
Doing analysis at TEMP = 27.000000 and TNOM = 27.000000


No. of Data Rows : 86
temp_coeff = 3.798366e+01
Doing analysis at TEMP = 27.000000 and TNOM = 27.000000


No. of Data Rows : 141
vldo_sup_2          =  1.803431e+00
vldo_sup_2_8        =  1.803690e+00
line_reg = 3.237500e-04
Note: No ".plot", ".print", or ".fourier" lines; no simulations run
vin                 =  1.932460e+00
dropout = 1.684600e-01
