 Reference value :  0.00000e+00
No compatibility mode selected!


Circuit: * ldo netlist 

Doing analysis at TEMP = 27.000000 and TNOM = 27.000000


No. of Data Rows : 1
bg_out = 1.195754e+00
inn = 1.227444e+00
inp = 1.227420e+00
l1#branch = 0.000000e+00
ldo_out = 1.799394e+00
m.xm1.msky130_fd_pr__nfet_g5v0d10v5#body = 1.650350e-11
m.xm1.msky130_fd_pr__nfet_g5v0d10v5#dbody = 3.274250e-11
m.xm1.msky130_fd_pr__nfet_g5v0d10v5#sbody = 1.676798e-11
m.xm2.msky130_fd_pr__pfet_g5v0d10v5#body = 2.300000e+00
m.xm2.msky130_fd_pr__pfet_g5v0d10v5#dbody = 2.300000e+00
m.xm2.msky130_fd_pr__pfet_g5v0d10v5#sbody = 2.300000e+00
m.xm3.msky130_fd_pr__pfet_g5v0d10v5#body = 2.300000e+00
m.xm3.msky130_fd_pr__pfet_g5v0d10v5#dbody = 2.300000e+00
m.xm3.msky130_fd_pr__pfet_g5v0d10v5#sbody = 2.300000e+00
m.xm4.msky130_fd_pr__pfet_g5v0d10v5#body = 2.300000e+00
m.xm4.msky130_fd_pr__pfet_g5v0d10v5#dbody = 2.300000e+00
m.xm4.msky130_fd_pr__pfet_g5v0d10v5#sbody = 2.300000e+00
m.xm5.msky130_fd_pr__pfet_g5v0d10v5#body = 2.300000e+00
m.xm5.msky130_fd_pr__pfet_g5v0d10v5#dbody = 2.300000e+00
m.xm5.msky130_fd_pr__pfet_g5v0d10v5#sbody = 2.300000e+00
m.xm6.msky130_fd_pr__nfet_g5v0d10v5#body = 1.116647e-11
m.xm6.msky130_fd_pr__nfet_g5v0d10v5#dbody = 2.791617e-11
m.xm6.msky130_fd_pr__nfet_g5v0d10v5#sbody = 5.583241e-12
m.xm7.msky130_fd_pr__pfet_g5v0d10v5#body = 2.300000e+00
m.xm7.msky130_fd_pr__pfet_g5v0d10v5#dbody = 2.300000e+00
m.xm7.msky130_fd_pr__pfet_g5v0d10v5#sbody = 2.300000e+00
m.xm8.msky130_fd_pr__pfet_g5v0d10v5#body = 2.300000e+00
m.xm8.msky130_fd_pr__pfet_g5v0d10v5#dbody = 2.300000e+00
m.xm8.msky130_fd_pr__pfet_g5v0d10v5#sbody = 2.300000e+00
m.xm9.msky130_fd_pr__nfet_g5v0d10v5#body = 1.719501e-11
m.xm9.msky130_fd_pr__nfet_g5v0d10v5#dbody = 3.536701e-11
m.xm9.msky130_fd_pr__nfet_g5v0d10v5#sbody = 1.621803e-11
m.xm10.msky130_fd_pr__nfet_g5v0d10v5#body = 1.698686e-11
m.xm10.msky130_fd_pr__nfet_g5v0d10v5#dbody = 3.484663e-11
m.xm10.msky130_fd_pr__nfet_g5v0d10v5#sbody = 1.611395e-11
m.xm11.msky130_fd_pr__pfet_g5v0d10v5#body = 2.300000e+00
m.xm11.msky130_fd_pr__pfet_g5v0d10v5#dbody = 2.300000e+00
m.xm11.msky130_fd_pr__pfet_g5v0d10v5#sbody = 2.300000e+00
m.xm12.msky130_fd_pr__pfet_g5v0d10v5#body = 2.300000e+00
m.xm12.msky130_fd_pr__pfet_g5v0d10v5#dbody = 2.300000e+00
m.xm12.msky130_fd_pr__pfet_g5v0d10v5#sbody = 2.300000e+00
m.xm13.msky130_fd_pr__nfet_g5v0d10v5#body = 3.808904e-12
m.xm13.msky130_fd_pr__nfet_g5v0d10v5#dbody = 9.522248e-12
m.xm13.msky130_fd_pr__nfet_g5v0d10v5#sbody = 1.904463e-12
m.xm14.msky130_fd_pr__pfet_g5v0d10v5#body = 2.300000e+00
m.xm14.msky130_fd_pr__pfet_g5v0d10v5#dbody = 2.300000e+00
m.xm14.msky130_fd_pr__pfet_g5v0d10v5#sbody = 2.300000e+00
m.xm15.msky130_fd_pr__nfet_g5v0d10v5#body = 4.341840e-17
m.xm15.msky130_fd_pr__nfet_g5v0d10v5#dbody = 1.085418e-16
m.xm15.msky130_fd_pr__nfet_g5v0d10v5#sbody = 2.171338e-17
m.xm16.msky130_fd_pr__nfet_g5v0d10v5#body = 4.410167e-11
m.xm16.msky130_fd_pr__nfet_g5v0d10v5#dbody = 7.955947e-11
m.xm16.msky130_fd_pr__nfet_g5v0d10v5#sbody = 5.274556e-11
m.xm17.msky130_fd_pr__pfet_g5v0d10v5#body = 2.300000e+00
m.xm17.msky130_fd_pr__pfet_g5v0d10v5#dbody = 2.300000e+00
m.xm17.msky130_fd_pr__pfet_g5v0d10v5#sbody = 2.300000e+00
m.xm18.msky130_fd_pr__nfet_g5v0d10v5#body = 1.742834e-11
m.xm18.msky130_fd_pr__nfet_g5v0d10v5#dbody = 4.356902e-11
m.xm18.msky130_fd_pr__nfet_g5v0d10v5#sbody = 8.714185e-12
m.xm19.msky130_fd_pr__nfet_g5v0d10v5#body = 1.653480e-11
m.xm19.msky130_fd_pr__nfet_g5v0d10v5#dbody = 3.282077e-11
m.xm19.msky130_fd_pr__nfet_g5v0d10v5#sbody = 1.678364e-11
m.xm20.msky130_fd_pr__nfet_g5v0d10v5#body = 1.108194e-11
m.xm20.msky130_fd_pr__nfet_g5v0d10v5#dbody = 2.770483e-11
m.xm20.msky130_fd_pr__nfet_g5v0d10v5#sbody = 5.540982e-12
m.xm22.msky130_fd_pr__nfet_g5v0d10v5#body = 4.260830e-12
m.xm22.msky130_fd_pr__nfet_g5v0d10v5#dbody = 1.065207e-11
m.xm22.msky130_fd_pr__nfet_g5v0d10v5#sbody = 2.130420e-12
m.xm24.msky130_fd_pr__pfet_g5v0d10v5#body = 2.300000e+00
m.xm24.msky130_fd_pr__pfet_g5v0d10v5#dbody = 2.300000e+00
m.xm24.msky130_fd_pr__pfet_g5v0d10v5#sbody = 2.300000e+00
m.xm26.msky130_fd_pr__pfet_g5v0d10v5#body = 2.300000e+00
m.xm26.msky130_fd_pr__pfet_g5v0d10v5#dbody = 2.300000e+00
m.xm26.msky130_fd_pr__pfet_g5v0d10v5#sbody = 2.300000e+00
mir = 9.792851e-01
net1 = 7.274604e-01
net2 = 3.340974e-06
net3 = 7.873264e-01
net4 = 3.403041e-01
net5 = 9.817895e-01
net6 = 8.927553e-01
net7 = 7.873025e-01
net8 = 1.053891e+00
net9 = 1.070544e+00
net10 = 3.045842e-01
net11 = 1.394066e+00
net12 = 1.394066e+00
net13 = 0.000000e+00
out = 1.394066e+00
pos = 1.195931e+00
q.xq2.qsky130_fd_pr__pnp_05v5_w0p68l0p68#collcx = 2.277897e-03
q.xq3.qsky130_fd_pr__pnp_05v5_w0p68l0p68#collcx = 2.870662e-04
q.xq4.qsky130_fd_pr__pnp_05v5_w0p68l0p68#collcx = 2.870662e-04
q.xq8.qsky130_fd_pr__pnp_05v5_w0p68l0p68#collcx = 2.870662e-04
q.xq10.qsky130_fd_pr__pnp_05v5_w0p68l0p68#collcx = 2.870662e-04
q.xq12.qsky130_fd_pr__pnp_05v5_w0p68l0p68#collcx = 2.870662e-04
q.xq14.qsky130_fd_pr__pnp_05v5_w0p68l0p68#collcx = 2.870662e-04
q.xq16.qsky130_fd_pr__pnp_05v5_w0p68l0p68#collcx = 2.870662e-04
q.xq18.qsky130_fd_pr__pnp_05v5_w0p68l0p68#collcx = 2.870662e-04
vb = 8.864269e-01
vdd = 2.300000e+00
vs#branch = -1.82770e-04
vt#branch = 0.000000e+00
xc1.a = 0.000000e+00
xc1.b1 = 0.000000e+00
xc3.a = 1.394066e+00
xc3.b1 = 1.394066e+00
xr1.xsky130_fd_pr__res_xhigh_po_0p69.ra = 7.902060e-01
xr2.xsky130_fd_pr__res_xhigh_po_0p69.ra = 7.902300e-01
xr3.xsky130_fd_pr__res_xhigh_po_0p69.ra = 1.966673e-03
xr4.xsky130_fd_pr__res_xhigh_po_0p69.ra = 7.284353e-01
xr5.xsky130_fd_pr__res_xhigh_po_0p69.ra = 1.966610e-03
xr6.xsky130_fd_pr__res_xhigh_po_0p69.ra = 3.086707e-03
xr7.xsky130_fd_pr__res_xhigh_po_0p69.ra = 1.394066e+00
xr8.xsky130_fd_pr__res_xhigh_po_0p69.ra = 1.201062e+00
xr9.xsky130_fd_pr__res_xhigh_po_0p69.ra = 5.380620e-03
Doing analysis at TEMP = 27.000000 and TNOM = 27.000000


No. of Data Rows : 91
Note: Starting true gmin stepping
Trying gmin =   1.0000E-03 Note: One successful gmin step
Trying gmin =   1.0000E-04 Note: One successful gmin step
Trying gmin =   1.0000E-05 Note: One successful gmin step
Trying gmin =   1.0000E-06 Note: One successful gmin step
Trying gmin =   1.0000E-07 Warning: Further gmin increment
Trying gmin =   5.6234E-07 Note: One successful gmin step
Trying gmin =   2.3714E-07 Note: One successful gmin step
Trying gmin =   6.4938E-08 Note: One successful gmin step
Trying gmin =   9.3057E-09 Warning: Further gmin increment
Trying gmin =   3.9954E-08 Note: One successful gmin step
Trying gmin =   2.4582E-08 Note: One successful gmin step
Trying gmin =   1.1864E-08 Note: One successful gmin step
Trying gmin =   3.9775E-09 Note: One successful gmin step
Trying gmin =   7.7214E-10 Note: One successful gmin step
Trying gmin =   7.7214E-11 Note: One successful gmin step
Trying gmin =   7.7214E-12 Note: One successful gmin step
Trying gmin =   1.0000E-12 Note: One successful gmin step
Note: True gmin stepping completed
 Reference value :  1.58000e+00Note: Starting true gmin stepping
Trying gmin =   1.0000E-03 Note: One successful gmin step
Trying gmin =   1.0000E-04 Note: One successful gmin step
Trying gmin =   1.0000E-05 Note: One successful gmin step
Trying gmin =   1.0000E-06 Note: One successful gmin step
Trying gmin =   1.0000E-07 Warning: Further gmin increment
Trying gmin =   5.6234E-07 Note: One successful gmin step
Trying gmin =   2.3714E-07 Note: One successful gmin step
Trying gmin =   6.4938E-08 Note: One successful gmin step
Trying gmin =   9.3057E-09 Warning: Further gmin increment
Trying gmin =   3.9954E-08 Note: One successful gmin step
Trying gmin =   3.1340E-08 Note: One successful gmin step
Trying gmin =   2.1772E-08 Note: One successful gmin step
Trying gmin =   1.2606E-08 Note: One successful gmin step
Trying gmin =   5.5543E-09 Note: One successful gmin step
Trying gmin =   1.6244E-09 Note: One successful gmin step
Trying gmin =   2.5692E-10 Note: One successful gmin step
Trying gmin =   2.5692E-11 Note: One successful gmin step
Trying gmin =   2.5692E-12 Note: One successful gmin step
Trying gmin =   1.0000E-12 Note: One successful gmin step
Note: True gmin stepping completed
pm                  =  4.988215e+01
Doing analysis at TEMP = 27.000000 and TNOM = 27.000000


No. of Data Rows : 91
psrr100             =  -8.832022e+01
psrr100k            =  -2.831739e+01
Doing analysis at TEMP = 27.000000 and TNOM = 27.000000


No. of Data Rows : 86
temp_coeff = 1.746536e+02
Doing analysis at TEMP = 27.000000 and TNOM = 27.000000


No. of Data Rows : 141
vldo_sup_2          =  1.799227e+00
vldo_sup_2_8        =  1.799368e+00
line_reg = 1.762500e-04
Note: No ".plot", ".print", or ".fourier" lines; no simulations run
vin                 =  1.764166e+00
dropout = 1.660000e-04
