 Reference value :  0.00000e+00
No compatibility mode selected!


Circuit: * ldo netlist 

Doing analysis at TEMP = 85.000000 and TNOM = 27.000000


No. of Data Rows : 1
bg_out = 1.099132e+00
inn = 1.065764e+00
inp = 1.065611e+00
l1#branch = 0.000000e+00
ldo_out = 1.806789e+00
m.xm1.msky130_fd_pr__nfet_g5v0d10v5#body = 2.392424e-11
m.xm1.msky130_fd_pr__nfet_g5v0d10v5#dbody = 4.454968e-11
m.xm1.msky130_fd_pr__nfet_g5v0d10v5#sbody = 2.722303e-11
m.xm2.msky130_fd_pr__pfet_g5v0d10v5#body = 2.100000e+00
m.xm2.msky130_fd_pr__pfet_g5v0d10v5#dbody = 2.100000e+00
m.xm2.msky130_fd_pr__pfet_g5v0d10v5#sbody = 2.100000e+00
m.xm3.msky130_fd_pr__pfet_g5v0d10v5#body = 2.100000e+00
m.xm3.msky130_fd_pr__pfet_g5v0d10v5#dbody = 2.100000e+00
m.xm3.msky130_fd_pr__pfet_g5v0d10v5#sbody = 2.100000e+00
m.xm4.msky130_fd_pr__pfet_g5v0d10v5#body = 2.100000e+00
m.xm4.msky130_fd_pr__pfet_g5v0d10v5#dbody = 2.100000e+00
m.xm4.msky130_fd_pr__pfet_g5v0d10v5#sbody = 2.100000e+00
m.xm5.msky130_fd_pr__pfet_g5v0d10v5#body = 2.100000e+00
m.xm5.msky130_fd_pr__pfet_g5v0d10v5#dbody = 2.100000e+00
m.xm5.msky130_fd_pr__pfet_g5v0d10v5#sbody = 2.100000e+00
m.xm6.msky130_fd_pr__nfet_g5v0d10v5#body = 2.028448e-11
m.xm6.msky130_fd_pr__nfet_g5v0d10v5#dbody = 5.071109e-11
m.xm6.msky130_fd_pr__nfet_g5v0d10v5#sbody = 1.014235e-11
m.xm7.msky130_fd_pr__pfet_g5v0d10v5#body = 2.100000e+00
m.xm7.msky130_fd_pr__pfet_g5v0d10v5#dbody = 2.100000e+00
m.xm7.msky130_fd_pr__pfet_g5v0d10v5#sbody = 2.100000e+00
m.xm8.msky130_fd_pr__pfet_g5v0d10v5#body = 2.100000e+00
m.xm8.msky130_fd_pr__pfet_g5v0d10v5#dbody = 2.100000e+00
m.xm8.msky130_fd_pr__pfet_g5v0d10v5#sbody = 2.100000e+00
m.xm9.msky130_fd_pr__nfet_g5v0d10v5#body = 2.211153e-11
m.xm9.msky130_fd_pr__nfet_g5v0d10v5#dbody = 4.314443e-11
m.xm9.msky130_fd_pr__nfet_g5v0d10v5#sbody = 2.319015e-11
m.xm10.msky130_fd_pr__nfet_g5v0d10v5#body = 2.176910e-11
m.xm10.msky130_fd_pr__nfet_g5v0d10v5#dbody = 4.228835e-11
m.xm10.msky130_fd_pr__nfet_g5v0d10v5#sbody = 2.301894e-11
m.xm11.msky130_fd_pr__pfet_g5v0d10v5#body = 2.100000e+00
m.xm11.msky130_fd_pr__pfet_g5v0d10v5#dbody = 2.100000e+00
m.xm11.msky130_fd_pr__pfet_g5v0d10v5#sbody = 2.100000e+00
m.xm12.msky130_fd_pr__pfet_g5v0d10v5#body = 2.100000e+00
m.xm12.msky130_fd_pr__pfet_g5v0d10v5#dbody = 2.100000e+00
m.xm12.msky130_fd_pr__pfet_g5v0d10v5#sbody = 2.100000e+00
m.xm13.msky130_fd_pr__nfet_g5v0d10v5#body = 4.424290e-12
m.xm13.msky130_fd_pr__nfet_g5v0d10v5#dbody = 1.106066e-11
m.xm13.msky130_fd_pr__nfet_g5v0d10v5#sbody = 2.212207e-12
m.xm14.msky130_fd_pr__pfet_g5v0d10v5#body = 2.100000e+00
m.xm14.msky130_fd_pr__pfet_g5v0d10v5#dbody = 2.100000e+00
m.xm14.msky130_fd_pr__pfet_g5v0d10v5#sbody = 2.100000e+00
m.xm15.msky130_fd_pr__nfet_g5v0d10v5#body = 5.683362e-15
m.xm15.msky130_fd_pr__nfet_g5v0d10v5#dbody = 1.420822e-14
m.xm15.msky130_fd_pr__nfet_g5v0d10v5#sbody = 2.841866e-15
m.xm16.msky130_fd_pr__nfet_g5v0d10v5#body = 5.017838e-11
m.xm16.msky130_fd_pr__nfet_g5v0d10v5#dbody = 8.819552e-11
m.xm16.msky130_fd_pr__nfet_g5v0d10v5#sbody = 6.233962e-11
m.xm17.msky130_fd_pr__pfet_g5v0d10v5#body = 2.100000e+00
m.xm17.msky130_fd_pr__pfet_g5v0d10v5#dbody = 2.100000e+00
m.xm17.msky130_fd_pr__pfet_g5v0d10v5#sbody = 2.100000e+00
m.xm18.msky130_fd_pr__nfet_g5v0d10v5#body = 1.892051e-11
m.xm18.msky130_fd_pr__nfet_g5v0d10v5#dbody = 4.730089e-11
m.xm18.msky130_fd_pr__nfet_g5v0d10v5#sbody = 9.460329e-12
m.xm19.msky130_fd_pr__nfet_g5v0d10v5#body = 2.411187e-11
m.xm19.msky130_fd_pr__nfet_g5v0d10v5#dbody = 4.501875e-11
m.xm19.msky130_fd_pr__nfet_g5v0d10v5#sbody = 2.731684e-11
m.xm20.msky130_fd_pr__nfet_g5v0d10v5#body = 1.428321e-11
m.xm20.msky130_fd_pr__nfet_g5v0d10v5#dbody = 3.570795e-11
m.xm20.msky130_fd_pr__nfet_g5v0d10v5#sbody = 7.141679e-12
m.xm22.msky130_fd_pr__nfet_g5v0d10v5#body = 1.091440e-11
m.xm22.msky130_fd_pr__nfet_g5v0d10v5#dbody = 2.728589e-11
m.xm22.msky130_fd_pr__nfet_g5v0d10v5#sbody = 5.457300e-12
m.xm24.msky130_fd_pr__pfet_g5v0d10v5#body = 2.100000e+00
m.xm24.msky130_fd_pr__pfet_g5v0d10v5#dbody = 2.100000e+00
m.xm24.msky130_fd_pr__pfet_g5v0d10v5#sbody = 2.100000e+00
m.xm26.msky130_fd_pr__pfet_g5v0d10v5#body = 2.100000e+00
m.xm26.msky130_fd_pr__pfet_g5v0d10v5#dbody = 2.100000e+00
m.xm26.msky130_fd_pr__pfet_g5v0d10v5#sbody = 2.100000e+00
mir = 8.792496e-01
net1 = 6.353719e-01
net2 = 1.095389e-05
net3 = 7.081734e-01
net4 = 1.876830e-01
net5 = 8.942599e-01
net6 = 9.348572e-01
net7 = 7.080175e-01
net8 = 9.637211e-01
net9 = 9.911157e-01
net10 = 1.938042e-01
net11 = 1.353017e+00
net12 = 1.353017e+00
net13 = 0.000000e+00
out = 1.353017e+00
pos = 1.099473e+00
q.xq2.qsky130_fd_pr__pnp_05v5_w0p68l0p68#collcx = 2.683937e-03
q.xq3.qsky130_fd_pr__pnp_05v5_w0p68l0p68#collcx = 3.412401e-04
q.xq4.qsky130_fd_pr__pnp_05v5_w0p68l0p68#collcx = 3.412401e-04
q.xq8.qsky130_fd_pr__pnp_05v5_w0p68l0p68#collcx = 3.412401e-04
q.xq10.qsky130_fd_pr__pnp_05v5_w0p68l0p68#collcx = 3.412401e-04
q.xq12.qsky130_fd_pr__pnp_05v5_w0p68l0p68#collcx = 3.412401e-04
q.xq14.qsky130_fd_pr__pnp_05v5_w0p68l0p68#collcx = 3.412401e-04
q.xq16.qsky130_fd_pr__pnp_05v5_w0p68l0p68#collcx = 3.412401e-04
q.xq18.qsky130_fd_pr__pnp_05v5_w0p68l0p68#collcx = 3.412401e-04
vb = 9.820449e-01
vdd = 2.100000e+00
vs#branch = -1.81506e-04
vt#branch = 0.000000e+00
xc1.a = 0.000000e+00
xc1.b1 = 0.000000e+00
xc3.a = 1.353017e+00
xc3.b1 = 1.353017e+00
xr1.xsky130_fd_pr__res_xhigh_po_0p69.ra = 7.164599e-01
xr2.xsky130_fd_pr__res_xhigh_po_0p69.ra = 7.166157e-01
xr3.xsky130_fd_pr__res_xhigh_po_0p69.ra = 5.203311e-03
xr4.xsky130_fd_pr__res_xhigh_po_0p69.ra = 6.387123e-01
xr5.xsky130_fd_pr__res_xhigh_po_0p69.ra = 5.202099e-03
xr6.xsky130_fd_pr__res_xhigh_po_0p69.ra = 8.930400e-03
xr7.xsky130_fd_pr__res_xhigh_po_0p69.ra = 1.353017e+00
xr8.xsky130_fd_pr__res_xhigh_po_0p69.ra = 1.113044e+00
xr9.xsky130_fd_pr__res_xhigh_po_0p69.ra = 1.401098e-02
Doing analysis at TEMP = 85.000000 and TNOM = 27.000000


No. of Data Rows : 91
Note: Starting true gmin stepping
Trying gmin =   1.0000E-03 Note: One successful gmin step
Trying gmin =   1.0000E-04 Note: One successful gmin step
Trying gmin =   1.0000E-05 Note: One successful gmin step
Trying gmin =   1.0000E-06 Note: One successful gmin step
Trying gmin =   1.0000E-07 Warning: Further gmin increment
Trying gmin =   5.6234E-07 Note: One successful gmin step
Trying gmin =   2.3714E-07 Note: One successful gmin step
Trying gmin =   6.4938E-08 Warning: Further gmin increment
Trying gmin =   1.7154E-07 Note: One successful gmin step
Trying gmin =   1.0554E-07 Warning: Further gmin increment
Trying gmin =   1.5193E-07 Note: One successful gmin step
Trying gmin =   1.2663E-07 Warning: Further gmin increment
Trying gmin =   1.4517E-07 Note: One successful gmin step
Trying gmin =   1.3558E-07 Note: One successful gmin step
Trying gmin =   1.3103E-07 Note: One successful gmin step
Trying gmin =   1.2449E-07 Note: One successful gmin step
Trying gmin =   1.1528E-07 Note: One successful gmin step
Trying gmin =   1.0273E-07 Note: One successful gmin step
Trying gmin =   8.6419E-08 Note: One successful gmin step
Trying gmin =   6.6678E-08 Warning: Further gmin increment
Trying gmin =   8.0994E-08 Note: One successful gmin step
Trying gmin =   7.3488E-08 Warning: Further gmin increment
Trying gmin =   7.9049E-08 Note: One successful gmin step
Trying gmin =   7.6218E-08 Note: One successful gmin step
Trying gmin =   7.2161E-08 Warning: Further gmin increment
Trying gmin =   7.5183E-08 Note: One successful gmin step
Trying gmin =   7.4162E-08 Note: One successful gmin step
Trying gmin =   7.2656E-08 Note: One successful gmin step
Trying gmin =   7.0454E-08 Note: One successful gmin step
Trying gmin =   6.7276E-08 Note: One successful gmin step
Trying gmin =   6.2776E-08 Note: One successful gmin step
Trying gmin =   5.6584E-08 Note: One successful gmin step
Trying gmin =   4.8422E-08 Note: One successful gmin step
Trying gmin =   3.8332E-08 Note: One successful gmin step
Trying gmin =   2.6999E-08 Note: One successful gmin step
Trying gmin =   1.5959E-08 Note: One successful gmin step
Trying gmin =   7.2531E-09 Note: One successful gmin step
Trying gmin =   2.2222E-09 Note: One successful gmin step
Trying gmin =   3.7686E-10 Note: One successful gmin step
Trying gmin =   3.7686E-11 Note: One successful gmin step
Trying gmin =   3.7686E-12 Note: One successful gmin step
Trying gmin =   1.0000E-12 Note: One successful gmin step
Note: True gmin stepping completed
 Reference value :  2.80000e+00Note: Starting true gmin stepping
Trying gmin =   1.0000E-03 Note: One successful gmin step
Trying gmin =   1.0000E-04 Note: One successful gmin step
Trying gmin =   1.0000E-05 Note: One successful gmin step
Trying gmin =   1.0000E-06 Note: One successful gmin step
Trying gmin =   1.0000E-07 Note: One successful gmin step
Trying gmin =   1.0000E-08 Warning: Further gmin increment
Trying gmin =   5.6234E-08 Note: One successful gmin step
Trying gmin =   2.3714E-08 Note: One successful gmin step
Trying gmin =   6.4938E-09 Note: One successful gmin step
Trying gmin =   9.3057E-10 Warning: Further gmin increment
Trying gmin =   3.9954E-09 Note: One successful gmin step
Trying gmin =   1.9282E-09 Warning: Further gmin increment
Trying gmin =   3.3301E-09 Note: One successful gmin step
Trying gmin =   2.5340E-09 Note: One successful gmin step
Trying gmin =   1.6820E-09 Note: One successful gmin step
Trying gmin =   9.0962E-10 Note: One successful gmin step
Trying gmin =   3.6175E-10 Note: One successful gmin step
Trying gmin =   9.0726E-11 Note: One successful gmin step
Trying gmin =   1.1395E-11 Note: One successful gmin step
Trying gmin =   1.1395E-12 Note: One successful gmin step
Trying gmin =   1.0000E-12 Note: One successful gmin step
Note: True gmin stepping completed
 Reference value :  1.28000e+00Note: Starting true gmin stepping
Trying gmin =   1.0000E-03 Note: One successful gmin step
Trying gmin =   1.0000E-04 Note: One successful gmin step
Trying gmin =   1.0000E-05 Note: One successful gmin step
Trying gmin =   1.0000E-06 Note: One successful gmin step
Trying gmin =   1.0000E-07 Note: One successful gmin step
Trying gmin =   1.0000E-08 Note: One successful gmin step
Trying gmin =   1.0000E-09 Warning: Further gmin increment
Trying gmin =   5.6234E-09 Note: One successful gmin step
Trying gmin =   2.3714E-09 Note: One successful gmin step
Trying gmin =   1.0000E-09 Note: One successful gmin step
Trying gmin =   2.7384E-10 Note: One successful gmin step
Trying gmin =   3.9242E-11 Note: One successful gmin step
Trying gmin =   3.9242E-12 Note: One successful gmin step
Trying gmin =   1.0000E-12 Note: One successful gmin step
Note: True gmin stepping completed
pm                  =  6.462616e+01
Doing analysis at TEMP = 85.000000 and TNOM = 27.000000


No. of Data Rows : 91
psrr100             =  -4.725888e+01
psrr100k            =  -2.386523e+01
Doing analysis at TEMP = 85.000000 and TNOM = 27.000000


No. of Data Rows : 86
temp_coeff = 2.628288e+01
Doing analysis at TEMP = 85.000000 and TNOM = 27.000000


No. of Data Rows : 141
vldo_sup_2          =  1.806287e+00
vldo_sup_2_8        =  1.808429e+00
line_reg = 2.677500e-03
Note: No ".plot", ".print", or ".fourier" lines; no simulations run
vin                 =  1.764167e+00
dropout = 1.670000e-04
