 Reference value :  0.00000e+00
No compatibility mode selected!


Circuit: * ldo netlist 

Doing analysis at TEMP = 85.000000 and TNOM = 27.000000


No. of Data Rows : 1
bg_out = 1.105096e+00
inn = 1.072002e+00
inp = 1.071868e+00
l1#branch = 0.000000e+00
ldo_out = 1.817334e+00
m.xm1.msky130_fd_pr__nfet_g5v0d10v5#body = 2.627910e-11
m.xm1.msky130_fd_pr__nfet_g5v0d10v5#dbody = 5.040421e-11
m.xm1.msky130_fd_pr__nfet_g5v0d10v5#sbody = 2.843308e-11
m.xm2.msky130_fd_pr__pfet_g5v0d10v5#body = 2.300000e+00
m.xm2.msky130_fd_pr__pfet_g5v0d10v5#dbody = 2.300000e+00
m.xm2.msky130_fd_pr__pfet_g5v0d10v5#sbody = 2.300000e+00
m.xm3.msky130_fd_pr__pfet_g5v0d10v5#body = 2.300000e+00
m.xm3.msky130_fd_pr__pfet_g5v0d10v5#dbody = 2.300000e+00
m.xm3.msky130_fd_pr__pfet_g5v0d10v5#sbody = 2.300000e+00
m.xm4.msky130_fd_pr__pfet_g5v0d10v5#body = 2.300000e+00
m.xm4.msky130_fd_pr__pfet_g5v0d10v5#dbody = 2.300000e+00
m.xm4.msky130_fd_pr__pfet_g5v0d10v5#sbody = 2.300000e+00
m.xm5.msky130_fd_pr__pfet_g5v0d10v5#body = 2.300000e+00
m.xm5.msky130_fd_pr__pfet_g5v0d10v5#dbody = 2.300000e+00
m.xm5.msky130_fd_pr__pfet_g5v0d10v5#sbody = 2.300000e+00
m.xm6.msky130_fd_pr__nfet_g5v0d10v5#body = 2.041068e-11
m.xm6.msky130_fd_pr__nfet_g5v0d10v5#dbody = 5.102658e-11
m.xm6.msky130_fd_pr__nfet_g5v0d10v5#sbody = 1.020546e-11
m.xm7.msky130_fd_pr__pfet_g5v0d10v5#body = 2.300000e+00
m.xm7.msky130_fd_pr__pfet_g5v0d10v5#dbody = 2.300000e+00
m.xm7.msky130_fd_pr__pfet_g5v0d10v5#sbody = 2.300000e+00
m.xm8.msky130_fd_pr__pfet_g5v0d10v5#body = 2.300000e+00
m.xm8.msky130_fd_pr__pfet_g5v0d10v5#dbody = 2.300000e+00
m.xm8.msky130_fd_pr__pfet_g5v0d10v5#sbody = 2.300000e+00
m.xm9.msky130_fd_pr__nfet_g5v0d10v5#body = 2.451366e-11
m.xm9.msky130_fd_pr__nfet_g5v0d10v5#dbody = 4.912620e-11
m.xm9.msky130_fd_pr__nfet_g5v0d10v5#sbody = 2.441479e-11
m.xm10.msky130_fd_pr__nfet_g5v0d10v5#body = 2.413302e-11
m.xm10.msky130_fd_pr__nfet_g5v0d10v5#dbody = 4.817460e-11
m.xm10.msky130_fd_pr__nfet_g5v0d10v5#sbody = 2.422447e-11
m.xm11.msky130_fd_pr__pfet_g5v0d10v5#body = 2.300000e+00
m.xm11.msky130_fd_pr__pfet_g5v0d10v5#dbody = 2.300000e+00
m.xm11.msky130_fd_pr__pfet_g5v0d10v5#sbody = 2.300000e+00
m.xm12.msky130_fd_pr__pfet_g5v0d10v5#body = 2.300000e+00
m.xm12.msky130_fd_pr__pfet_g5v0d10v5#dbody = 2.300000e+00
m.xm12.msky130_fd_pr__pfet_g5v0d10v5#sbody = 2.300000e+00
m.xm13.msky130_fd_pr__nfet_g5v0d10v5#body = 4.435946e-12
m.xm13.msky130_fd_pr__nfet_g5v0d10v5#dbody = 1.108980e-11
m.xm13.msky130_fd_pr__nfet_g5v0d10v5#sbody = 2.218040e-12
m.xm14.msky130_fd_pr__pfet_g5v0d10v5#body = 2.300000e+00
m.xm14.msky130_fd_pr__pfet_g5v0d10v5#dbody = 2.300000e+00
m.xm14.msky130_fd_pr__pfet_g5v0d10v5#sbody = 2.300000e+00
m.xm15.msky130_fd_pr__nfet_g5v0d10v5#body = 2.436767e-14
m.xm15.msky130_fd_pr__nfet_g5v0d10v5#dbody = 6.091835e-14
m.xm15.msky130_fd_pr__nfet_g5v0d10v5#sbody = 1.218464e-14
m.xm16.msky130_fd_pr__nfet_g5v0d10v5#body = 5.275635e-11
m.xm16.msky130_fd_pr__nfet_g5v0d10v5#dbody = 9.448450e-11
m.xm16.msky130_fd_pr__nfet_g5v0d10v5#sbody = 6.378454e-11
m.xm17.msky130_fd_pr__pfet_g5v0d10v5#body = 2.300000e+00
m.xm17.msky130_fd_pr__pfet_g5v0d10v5#dbody = 2.300000e+00
m.xm17.msky130_fd_pr__pfet_g5v0d10v5#sbody = 2.300000e+00
m.xm18.msky130_fd_pr__nfet_g5v0d10v5#body = 2.149128e-11
m.xm18.msky130_fd_pr__nfet_g5v0d10v5#dbody = 5.369954e-11
m.xm18.msky130_fd_pr__nfet_g5v0d10v5#sbody = 1.074572e-11
m.xm19.msky130_fd_pr__nfet_g5v0d10v5#body = 2.646927e-11
m.xm19.msky130_fd_pr__nfet_g5v0d10v5#dbody = 5.087963e-11
m.xm19.msky130_fd_pr__nfet_g5v0d10v5#sbody = 2.852816e-11
m.xm20.msky130_fd_pr__nfet_g5v0d10v5#body = 1.441899e-11
m.xm20.msky130_fd_pr__nfet_g5v0d10v5#dbody = 3.604740e-11
m.xm20.msky130_fd_pr__nfet_g5v0d10v5#sbody = 7.209578e-12
m.xm22.msky130_fd_pr__nfet_g5v0d10v5#body = 1.093114e-11
m.xm22.msky130_fd_pr__nfet_g5v0d10v5#dbody = 2.732775e-11
m.xm22.msky130_fd_pr__nfet_g5v0d10v5#sbody = 5.465681e-12
m.xm24.msky130_fd_pr__pfet_g5v0d10v5#body = 2.300000e+00
m.xm24.msky130_fd_pr__pfet_g5v0d10v5#dbody = 2.300000e+00
m.xm24.msky130_fd_pr__pfet_g5v0d10v5#sbody = 2.300000e+00
m.xm26.msky130_fd_pr__pfet_g5v0d10v5#body = 2.300000e+00
m.xm26.msky130_fd_pr__pfet_g5v0d10v5#dbody = 2.300000e+00
m.xm26.msky130_fd_pr__pfet_g5v0d10v5#sbody = 2.300000e+00
mir = 1.066334e+00
net1 = 6.383217e-01
net2 = 4.699011e-05
net3 = 7.116611e-01
net4 = 1.889325e-01
net5 = 1.081547e+00
net6 = 9.449528e-01
net7 = 7.115249e-01
net8 = 1.151892e+00
net9 = 1.182344e+00
net10 = 1.947236e-01
net11 = 1.557547e+00
net12 = 1.557547e+00
net13 = 0.000000e+00
out = 1.557547e+00
pos = 1.105437e+00
q.xq2.qsky130_fd_pr__pnp_05v5_w0p68l0p68#collcx = 2.930170e-03
q.xq3.qsky130_fd_pr__pnp_05v5_w0p68l0p68#collcx = 3.731033e-04
q.xq4.qsky130_fd_pr__pnp_05v5_w0p68l0p68#collcx = 3.731033e-04
q.xq8.qsky130_fd_pr__pnp_05v5_w0p68l0p68#collcx = 3.731033e-04
q.xq10.qsky130_fd_pr__pnp_05v5_w0p68l0p68#collcx = 3.731033e-04
q.xq12.qsky130_fd_pr__pnp_05v5_w0p68l0p68#collcx = 3.731033e-04
q.xq14.qsky130_fd_pr__pnp_05v5_w0p68l0p68#collcx = 3.731033e-04
q.xq16.qsky130_fd_pr__pnp_05v5_w0p68l0p68#collcx = 3.731033e-04
q.xq18.qsky130_fd_pr__pnp_05v5_w0p68l0p68#collcx = 3.731033e-04
vb = 9.929074e-01
vdd = 2.300000e+00
vs#branch = -1.94225e-04
vt#branch = 0.000000e+00
xc1.a = 0.000000e+00
xc1.b1 = 0.000000e+00
xc3.a = 1.557547e+00
xc3.b1 = 1.557547e+00
xr1.xsky130_fd_pr__res_xhigh_po_0p69.ra = 7.147818e-01
xr2.xsky130_fd_pr__res_xhigh_po_0p69.ra = 7.149180e-01
xr3.xsky130_fd_pr__res_xhigh_po_0p69.ra = 2.006778e-03
xr4.xsky130_fd_pr__res_xhigh_po_0p69.ra = 6.396109e-01
xr5.xsky130_fd_pr__res_xhigh_po_0p69.ra = 2.006371e-03
xr6.xsky130_fd_pr__res_xhigh_po_0p69.ra = 3.446744e-03
xr7.xsky130_fd_pr__res_xhigh_po_0p69.ra = 1.557547e+00
xr8.xsky130_fd_pr__res_xhigh_po_0p69.ra = 1.110671e+00
xr9.xsky130_fd_pr__res_xhigh_po_0p69.ra = 5.404076e-03
Doing analysis at TEMP = 85.000000 and TNOM = 27.000000


No. of Data Rows : 91
Note: Starting true gmin stepping
Trying gmin =   1.0000E-03 Note: One successful gmin step
Trying gmin =   1.0000E-04 Note: One successful gmin step
Trying gmin =   1.0000E-05 Note: One successful gmin step
Trying gmin =   1.0000E-06 Note: One successful gmin step
Trying gmin =   1.0000E-07 Warning: Further gmin increment
Trying gmin =   5.6234E-07 Note: One successful gmin step
Trying gmin =   2.3714E-07 Note: One successful gmin step
Trying gmin =   6.4938E-08 Warning: Further gmin increment
Trying gmin =   1.7154E-07 Note: One successful gmin step
Trying gmin =   1.0554E-07 Note: One successful gmin step
Trying gmin =   8.2788E-08 Note: One successful gmin step
Trying gmin =   5.7513E-08 Warning: Further gmin increment
Trying gmin =   7.5582E-08 Warning: Further gmin increment
Trying gmin =   8.0925E-08 Note: One successful gmin step
Trying gmin =   7.8208E-08 Warning: Further gmin increment
Trying gmin =   8.0237E-08 Note: One successful gmin step
Trying gmin =   7.9216E-08 Note: One successful gmin step
Trying gmin =   7.8208E-08 Note: One successful gmin step
Trying gmin =   7.6720E-08 Note: One successful gmin step
Trying gmin =   7.4541E-08 Note: One successful gmin step
Trying gmin =   7.1387E-08 Note: One successful gmin step
Trying gmin =   6.6906E-08 Note: One successful gmin step
Trying gmin =   6.0706E-08 Note: One successful gmin step
Trying gmin =   5.2466E-08 Note: One successful gmin step
Trying gmin =   4.2155E-08 Note: One successful gmin step
Trying gmin =   3.0360E-08 Note: One successful gmin step
Trying gmin =   1.8556E-08 Note: One successful gmin step
Trying gmin =   8.8668E-09 Note: One successful gmin step
Trying gmin =   2.9287E-09 Note: One successful gmin step
Trying gmin =   5.5597E-10 Note: One successful gmin step
Trying gmin =   5.5597E-11 Note: One successful gmin step
Trying gmin =   5.5597E-12 Note: One successful gmin step
Trying gmin =   1.0000E-12 Note: One successful gmin step
Note: True gmin stepping completed
 Reference value :  2.80000e+00Note: Starting true gmin stepping
Trying gmin =   1.0000E-03 Note: One successful gmin step
Trying gmin =   1.0000E-04 Note: One successful gmin step
Trying gmin =   1.0000E-05 Note: One successful gmin step
Trying gmin =   1.0000E-06 Note: One successful gmin step
Trying gmin =   1.0000E-07 Note: One successful gmin step
Trying gmin =   1.0000E-08 Note: One successful gmin step
Trying gmin =   3.1623E-09 Warning: Further gmin increment
Trying gmin =   7.4989E-09 Note: One successful gmin step
Trying gmin =   4.8697E-09 Note: One successful gmin step
Trying gmin =   2.5483E-09 Warning: Further gmin increment
Trying gmin =   4.1418E-09 Note: One successful gmin step
Trying gmin =   3.2488E-09 Note: One successful gmin step
Trying gmin =   2.2569E-09 Note: One successful gmin step
Trying gmin =   1.3068E-09 Note: One successful gmin step
Trying gmin =   5.7578E-10 Note: One successful gmin step
Trying gmin =   1.6839E-10 Note: One successful gmin step
Trying gmin =   2.6633E-11 Note: One successful gmin step
Trying gmin =   2.6633E-12 Note: One successful gmin step
Trying gmin =   1.0000E-12 Note: One successful gmin step
Note: True gmin stepping completed
 Reference value :  1.30000e+00Note: Starting true gmin stepping
Trying gmin =   1.0000E-03 Note: One successful gmin step
Trying gmin =   1.0000E-04 Note: One successful gmin step
Trying gmin =   1.0000E-05 Note: One successful gmin step
Trying gmin =   1.0000E-06 Note: One successful gmin step
Trying gmin =   1.0000E-07 Note: One successful gmin step
Trying gmin =   1.0000E-08 Warning: Further gmin increment
Trying gmin =   5.6234E-08 Note: One successful gmin step
Trying gmin =   2.3714E-08 Note: One successful gmin step
Trying gmin =   6.4938E-09 Note: One successful gmin step
Trying gmin =   9.3057E-10 Warning: Further gmin increment
Trying gmin =   3.9954E-09 Note: One successful gmin step
Trying gmin =   1.9282E-09 Warning: Further gmin increment
Trying gmin =   3.3301E-09 Note: One successful gmin step
Trying gmin =   2.5340E-09 Note: One successful gmin step
Trying gmin =   1.6820E-09 Note: One successful gmin step
Trying gmin =   9.0962E-10 Note: One successful gmin step
Trying gmin =   3.6175E-10 Note: One successful gmin step
Trying gmin =   9.0726E-11 Note: One successful gmin step
Trying gmin =   1.1395E-11 Note: One successful gmin step
Trying gmin =   1.1395E-12 Note: One successful gmin step
Trying gmin =   1.0000E-12 Note: One successful gmin step
Note: True gmin stepping completed
pm                  =  6.320931e+01
Doing analysis at TEMP = 85.000000 and TNOM = 27.000000


No. of Data Rows : 91
psrr100             =  -5.043849e+01
psrr100k            =  -2.658780e+01
Doing analysis at TEMP = 85.000000 and TNOM = 27.000000


No. of Data Rows : 86
temp_coeff = 7.076862e+01
Doing analysis at TEMP = 85.000000 and TNOM = 27.000000


No. of Data Rows : 141
vldo_sup_2          =  1.816017e+00
vldo_sup_2_8        =  1.818356e+00
line_reg = 2.923750e-03
Note: No ".plot", ".print", or ".fourier" lines; no simulations run
vin                 =  1.764171e+00
dropout = 1.710000e-04
