 Reference value :  0.00000e+00
No compatibility mode selected!


Circuit: * ldo netlist 

Doing analysis at TEMP = 27.000000 and TNOM = 27.000000


No. of Data Rows : 1
bg_out = 1.194079e+00
inn = 1.224892e+00
inp = 1.224868e+00
l1#branch = 0.000000e+00
ldo_out = 1.796257e+00
m.xm1.msky130_fd_pr__nfet_g5v0d10v5#body = 2.019800e-11
m.xm1.msky130_fd_pr__nfet_g5v0d10v5#dbody = 4.446472e-11
m.xm1.msky130_fd_pr__nfet_g5v0d10v5#sbody = 1.612928e-11
m.xm2.msky130_fd_pr__pfet_g5v0d10v5#body = 2.500000e+00
m.xm2.msky130_fd_pr__pfet_g5v0d10v5#dbody = 2.500000e+00
m.xm2.msky130_fd_pr__pfet_g5v0d10v5#sbody = 2.500000e+00
m.xm3.msky130_fd_pr__pfet_g5v0d10v5#body = 2.500000e+00
m.xm3.msky130_fd_pr__pfet_g5v0d10v5#dbody = 2.500000e+00
m.xm3.msky130_fd_pr__pfet_g5v0d10v5#sbody = 2.500000e+00
m.xm4.msky130_fd_pr__pfet_g5v0d10v5#body = 2.500000e+00
m.xm4.msky130_fd_pr__pfet_g5v0d10v5#dbody = 2.500000e+00
m.xm4.msky130_fd_pr__pfet_g5v0d10v5#sbody = 2.500000e+00
m.xm5.msky130_fd_pr__pfet_g5v0d10v5#body = 2.500000e+00
m.xm5.msky130_fd_pr__pfet_g5v0d10v5#dbody = 2.500000e+00
m.xm5.msky130_fd_pr__pfet_g5v0d10v5#sbody = 2.500000e+00
m.xm6.msky130_fd_pr__nfet_g5v0d10v5#body = 1.240870e-11
m.xm6.msky130_fd_pr__nfet_g5v0d10v5#dbody = 3.102174e-11
m.xm6.msky130_fd_pr__nfet_g5v0d10v5#sbody = 6.204355e-12
m.xm7.msky130_fd_pr__pfet_g5v0d10v5#body = 2.500000e+00
m.xm7.msky130_fd_pr__pfet_g5v0d10v5#dbody = 2.500000e+00
m.xm7.msky130_fd_pr__pfet_g5v0d10v5#sbody = 2.500000e+00
m.xm8.msky130_fd_pr__pfet_g5v0d10v5#body = 2.500000e+00
m.xm8.msky130_fd_pr__pfet_g5v0d10v5#dbody = 2.500000e+00
m.xm8.msky130_fd_pr__pfet_g5v0d10v5#sbody = 2.500000e+00
m.xm9.msky130_fd_pr__nfet_g5v0d10v5#body = 2.086838e-11
m.xm9.msky130_fd_pr__nfet_g5v0d10v5#dbody = 4.707415e-11
m.xm9.msky130_fd_pr__nfet_g5v0d10v5#sbody = 1.553079e-11
m.xm10.msky130_fd_pr__nfet_g5v0d10v5#body = 2.067476e-11
m.xm10.msky130_fd_pr__nfet_g5v0d10v5#dbody = 4.659018e-11
m.xm10.msky130_fd_pr__nfet_g5v0d10v5#sbody = 1.543398e-11
m.xm11.msky130_fd_pr__pfet_g5v0d10v5#body = 2.500000e+00
m.xm11.msky130_fd_pr__pfet_g5v0d10v5#dbody = 2.500000e+00
m.xm11.msky130_fd_pr__pfet_g5v0d10v5#sbody = 2.500000e+00
m.xm12.msky130_fd_pr__pfet_g5v0d10v5#body = 2.500000e+00
m.xm12.msky130_fd_pr__pfet_g5v0d10v5#dbody = 2.500000e+00
m.xm12.msky130_fd_pr__pfet_g5v0d10v5#sbody = 2.500000e+00
m.xm13.msky130_fd_pr__nfet_g5v0d10v5#body = 2.546944e-12
m.xm13.msky130_fd_pr__nfet_g5v0d10v5#dbody = 6.367349e-12
m.xm13.msky130_fd_pr__nfet_g5v0d10v5#sbody = 1.273482e-12
m.xm14.msky130_fd_pr__pfet_g5v0d10v5#body = 2.500000e+00
m.xm14.msky130_fd_pr__pfet_g5v0d10v5#dbody = 2.500000e+00
m.xm14.msky130_fd_pr__pfet_g5v0d10v5#sbody = 2.500000e+00
m.xm15.msky130_fd_pr__nfet_g5v0d10v5#body = 1.744198e-15
m.xm15.msky130_fd_pr__nfet_g5v0d10v5#dbody = 4.360424e-15
m.xm15.msky130_fd_pr__nfet_g5v0d10v5#sbody = 8.721701e-16
m.xm16.msky130_fd_pr__nfet_g5v0d10v5#body = 4.656990e-11
m.xm16.msky130_fd_pr__nfet_g5v0d10v5#dbody = 8.579370e-11
m.xm16.msky130_fd_pr__nfet_g5v0d10v5#sbody = 5.391600e-11
m.xm17.msky130_fd_pr__pfet_g5v0d10v5#body = 2.500000e+00
m.xm17.msky130_fd_pr__pfet_g5v0d10v5#dbody = 2.500000e+00
m.xm17.msky130_fd_pr__pfet_g5v0d10v5#sbody = 2.500000e+00
m.xm18.msky130_fd_pr__nfet_g5v0d10v5#body = 1.463076e-11
m.xm18.msky130_fd_pr__nfet_g5v0d10v5#dbody = 3.657688e-11
m.xm18.msky130_fd_pr__nfet_g5v0d10v5#sbody = 7.315391e-12
m.xm19.msky130_fd_pr__nfet_g5v0d10v5#body = 2.024097e-11
m.xm19.msky130_fd_pr__nfet_g5v0d10v5#dbody = 4.457212e-11
m.xm19.msky130_fd_pr__nfet_g5v0d10v5#sbody = 1.615076e-11
m.xm20.msky130_fd_pr__nfet_g5v0d10v5#body = 1.303859e-11
m.xm20.msky130_fd_pr__nfet_g5v0d10v5#dbody = 3.259645e-11
m.xm20.msky130_fd_pr__nfet_g5v0d10v5#sbody = 6.519306e-12
m.xm22.msky130_fd_pr__nfet_g5v0d10v5#body = 3.017852e-12
m.xm22.msky130_fd_pr__nfet_g5v0d10v5#dbody = 7.544625e-12
m.xm22.msky130_fd_pr__nfet_g5v0d10v5#sbody = 1.508931e-12
m.xm24.msky130_fd_pr__pfet_g5v0d10v5#body = 2.500000e+00
m.xm24.msky130_fd_pr__pfet_g5v0d10v5#dbody = 2.500000e+00
m.xm24.msky130_fd_pr__pfet_g5v0d10v5#sbody = 2.500000e+00
m.xm26.msky130_fd_pr__pfet_g5v0d10v5#body = 2.500000e+00
m.xm26.msky130_fd_pr__pfet_g5v0d10v5#dbody = 2.500000e+00
m.xm26.msky130_fd_pr__pfet_g5v0d10v5#sbody = 2.500000e+00
mir = 1.374279e+00
net1 = 7.262708e-01
net2 = 1.342026e-04
net3 = 7.859723e-01
net4 = 2.408610e-01
net5 = 1.377716e+00
net6 = 9.921287e-01
net7 = 7.859477e-01
net8 = 1.449870e+00
net9 = 1.465357e+00
net10 = 2.036226e-01
net11 = 1.170327e+00
net12 = 1.170327e+00
net13 = 0.000000e+00
out = 1.170327e+00
pos = 1.194285e+00
q.xq2.qsky130_fd_pr__pnp_05v5_w0p68l0p68#collcx = 2.182094e-03
q.xq3.qsky130_fd_pr__pnp_05v5_w0p68l0p68#collcx = 2.748820e-04
q.xq4.qsky130_fd_pr__pnp_05v5_w0p68l0p68#collcx = 2.748820e-04
q.xq8.qsky130_fd_pr__pnp_05v5_w0p68l0p68#collcx = 2.748820e-04
q.xq10.qsky130_fd_pr__pnp_05v5_w0p68l0p68#collcx = 2.748820e-04
q.xq12.qsky130_fd_pr__pnp_05v5_w0p68l0p68#collcx = 2.748820e-04
q.xq14.qsky130_fd_pr__pnp_05v5_w0p68l0p68#collcx = 2.748820e-04
q.xq16.qsky130_fd_pr__pnp_05v5_w0p68l0p68#collcx = 2.748820e-04
q.xq18.qsky130_fd_pr__pnp_05v5_w0p68l0p68#collcx = 2.748820e-04
vb = 1.042954e+00
vdd = 2.500000e+00
vs#branch = -9.99178e-02
vt#branch = 0.000000e+00
xc1.a = 0.000000e+00
xc1.b1 = 0.000000e+00
xc3.a = 1.170327e+00
xc3.b1 = 1.170327e+00
xr1.xsky130_fd_pr__res_xhigh_po_0p69.ra = 7.912735e-01
xr2.xsky130_fd_pr__res_xhigh_po_0p69.ra = 7.912981e-01
xr3.xsky130_fd_pr__res_xhigh_po_0p69.ra = 3.606125e-03
xr4.xsky130_fd_pr__res_xhigh_po_0p69.ra = 7.280602e-01
xr5.xsky130_fd_pr__res_xhigh_po_0p69.ra = 3.606005e-03
xr6.xsky130_fd_pr__res_xhigh_po_0p69.ra = 5.661180e-03
xr7.xsky130_fd_pr__res_xhigh_po_0p69.ra = 1.170327e+00
xr8.xsky130_fd_pr__res_xhigh_po_0p69.ra = 1.203700e+00
xr9.xsky130_fd_pr__res_xhigh_po_0p69.ra = 9.873818e-03
Doing analysis at TEMP = 27.000000 and TNOM = 27.000000


No. of Data Rows : 91
Note: Starting true gmin stepping
Trying gmin =   1.0000E-03 Note: One successful gmin step
Trying gmin =   1.0000E-04 Note: One successful gmin step
Trying gmin =   1.0000E-05 Note: One successful gmin step
Trying gmin =   1.0000E-06 Warning: Further gmin increment
Trying gmin =   5.6234E-06 Note: One successful gmin step
Trying gmin =   2.3714E-06 Note: One successful gmin step
Trying gmin =   6.4938E-07 Warning: Further gmin increment
Trying gmin =   1.7154E-06 Warning: Further gmin increment
Trying gmin =   2.1870E-06 Note: One successful gmin step
Trying gmin =   1.9369E-06 Note: One successful gmin step
Trying gmin =   1.6144E-06 Note: One successful gmin step
Trying gmin =   1.2284E-06 Note: One successful gmin step
Trying gmin =   8.1541E-07 Note: One successful gmin step
Trying gmin =   4.4097E-07 Note: One successful gmin step
Trying gmin =   1.7537E-07 Note: One successful gmin step
Trying gmin =   4.3983E-08 Warning: Further gmin increment
Trying gmin =   1.2410E-07 Warning: Further gmin increment
Trying gmin =   1.6085E-07 Note: One successful gmin step
Trying gmin =   1.4129E-07 Note: One successful gmin step
Trying gmin =   1.1631E-07 Warning: Further gmin increment
Trying gmin =   1.3458E-07 Note: One successful gmin step
Trying gmin =   1.2511E-07 Warning: Further gmin increment
Trying gmin =   1.3215E-07 Note: One successful gmin step
Trying gmin =   1.2858E-07 Note: One successful gmin step
Trying gmin =   1.2342E-07 Warning: Further gmin increment
Trying gmin =   1.2727E-07 Note: One successful gmin step
Trying gmin =   1.2533E-07 Warning: Further gmin increment
Trying gmin =   1.2678E-07 Warning: Further gmin increment
Trying gmin =   1.2715E-07 Note: One successful gmin step
Trying gmin =   1.2697E-07 Note: One successful gmin step
Trying gmin =   1.2669E-07 Warning: Further gmin increment
Trying gmin =   1.2690E-07 Note: One successful gmin step
Trying gmin =   1.2679E-07 Warning: Further gmin increment
Trying gmin =   1.2687E-07 Note: One successful gmin step
Trying gmin =   1.2683E-07 Note: One successful gmin step
Trying gmin =   1.2678E-07 Warning: Further gmin increment
Trying gmin =   1.2682E-07 Warning: Further gmin increment
Trying gmin =   1.2683E-07 Note: One successful gmin step
Trying gmin =   1.2682E-07 Note: One successful gmin step
Trying gmin =   1.2682E-07 Warning: Further gmin increment
Trying gmin =   1.2682E-07 Warning: Last gmin step failed
Warning: True gmin stepping failed
Note: Starting dynamic gmin stepping
Trying gmin =   1.0000E-03 Note: One successful gmin step
Trying gmin =   1.0000E-04 Note: One successful gmin step
Trying gmin =   1.0000E-05 Note: One successful gmin step
Trying gmin =   1.0000E-06 Warning: Further gmin increment
Trying gmin =   5.6234E-06 Note: One successful gmin step
Trying gmin =   2.3714E-06 Note: One successful gmin step
Trying gmin =   1.0000E-06 Note: One successful gmin step
Trying gmin =   2.7384E-07 Warning: Further gmin increment
Trying gmin =   7.2339E-07 Note: One successful gmin step
Trying gmin =   4.4508E-07 Warning: Further gmin increment
Trying gmin =   6.4068E-07 Note: One successful gmin step
Trying gmin =   5.3400E-07 Warning: Further gmin increment
Trying gmin =   6.1216E-07 Note: One successful gmin step
Trying gmin =   5.7174E-07 Warning: Further gmin increment
Trying gmin =   6.0180E-07 Note: One successful gmin step
Trying gmin =   5.8658E-07 Warning: Further gmin increment
Trying gmin =   5.9796E-07 Note: One successful gmin step
Trying gmin =   5.9224E-07 Note: One successful gmin step
Trying gmin =   5.8377E-07 Warning: Further gmin increment
Trying gmin =   5.9011E-07 Warning: Further gmin increment
Trying gmin =   5.9171E-07 Warning: Further gmin increment
Trying gmin =   5.9211E-07 Warning: Further gmin increment
Trying gmin =   5.9221E-07 Note: One successful gmin step
Trying gmin =   5.9216E-07 Warning: Further gmin increment
Trying gmin =   5.9219E-07 Warning: Last gmin step failed
Warning: Dynamic gmin stepping failed
Note: Starting source stepping
Supplies reduced to   0.0000% Note: One successful source step
Supplies reduced to   0.1000% Note: One successful source step
Supplies reduced to   0.2000% Note: One successful source step
Supplies reduced to   0.3500% Note: One successful source step
Supplies reduced to   0.5750% Note: One successful source step
Supplies reduced to   0.9125% Note: One successful source step
Supplies reduced to   1.4188% Note: One successful source step
Supplies reduced to   2.1781% Note: One successful source step
Supplies reduced to   3.3172% Note: One successful source step
Supplies reduced to   5.0258% Note: One successful source step
Supplies reduced to   7.5887% Note: One successful source step
Supplies reduced to  11.4330% Note: One successful source step
Supplies reduced to  17.1995% Note: One successful source step
Supplies reduced to  25.8493% Note: One successful source step
Supplies reduced to  38.8239% Supplies reduced to  25.8493% Note: One successful source step
Supplies reduced to  26.4980% Note: One successful source step
Supplies reduced to  27.4711% Note: One successful source step
Supplies reduced to  28.4442% Note: One successful source step
Supplies reduced to  29.9038% Note: One successful source step
Supplies reduced to  32.0933% Note: One successful source step
Supplies reduced to  35.3775% Note: One successful source step
Supplies reduced to  40.3038% Note: One successful source step
Supplies reduced to  45.2301% Note: One successful source step
Supplies reduced to  50.1564% Note: One successful source step
Supplies reduced to  57.5459% Note: One successful source step
Supplies reduced to  68.6301% Error: -3.60781e+165, 2 out of range for ^
Supplies reduced to  57.5459% Note: One successful source step
Supplies reduced to  58.5459% Note: One successful source step
Supplies reduced to  60.0459% Note: One successful source step
Supplies reduced to  62.2959% Supplies reduced to  60.0459% Note: One successful source step
Supplies reduced to  60.3834% Supplies reduced to  60.0459% Note: One successful source step
Supplies reduced to  60.0965% Note: One successful source step
Supplies reduced to  60.1725% Note: One successful source step
Supplies reduced to  60.2864% Supplies reduced to  60.1725% Note: One successful source step
Supplies reduced to  60.1895% Supplies reduced to  60.1725% Note: One successful source step
Supplies reduced to  60.1750% Note: One successful source step
Supplies reduced to  60.1789% Note: One successful source step
Supplies reduced to  60.1846% Supplies reduced to  60.1789% Note: One successful source step
Supplies reduced to  60.1797% Note: One successful source step
Supplies reduced to  60.1810% Note: One successful source step
Supplies reduced to  60.1830% Note: One successful source step
Supplies reduced to  60.1859% Supplies reduced to  60.1830% Note: One successful source step
Supplies reduced to  60.1834% Supplies reduced to  60.1830% Note: One successful source step
Supplies reduced to  60.1830% Note: One successful source step
Supplies reduced to  60.1831% Note: One successful source step
Supplies reduced to  60.1833% Supplies reduced to  60.1831% Note: One successful source step
Supplies reduced to  60.1832% Warning: source stepping failed
doAnalyses: Too many iterations without convergence

dc simulation(s) aborted
Error(parse.c--checkvalid): vldo_sup_2_8: zero length vector.
Error: RHS "abs((vldo_sup_2_8-vldo_sup_2)/0.8)" invalid
Error(parse.c--checkvalid): line_reg: zero length vector.
Error(parse.c--checkvalid): vin: zero length vector.
Error: RHS "vin-1.764" invalid
Error(parse.c--checkvalid): dropout: zero length vector.
Error: no such vector dropout
Note: No ".plot", ".print", or ".fourier" lines; no simulations run
pm                  =  2.473948e+01
Doing analysis at TEMP = 27.000000 and TNOM = 27.000000


No. of Data Rows : 91
psrr100             =  -8.514171e+01
psrr100k            =  -2.577642e+01
Doing analysis at TEMP = 27.000000 and TNOM = 27.000000


No. of Data Rows : 86
temp_coeff = 1.372739e+02
Doing analysis at TEMP = 27.000000 and TNOM = 27.000000


Error: measure  vldo_sup_2  (AT) : out of interval
 meas dc vldo_sup_2 find ldo_out at=2 failed!


Error: measure  vldo_sup_2_8  (AT) : out of interval
 meas dc vldo_sup_2_8 find ldo_out at=2.8 failed!


Error: measure  vin  (WHEN) : out of interval
 meas dc vin when v(ldo_out)=1.764 failed!

