 Reference value :  0.00000e+00
No compatibility mode selected!


Circuit: * ldo netlist 

Doing analysis at TEMP = 0.000000 and TNOM = 27.000000


No. of Data Rows : 1
bg_out = 5.770209e-01
inn = 7.970439e-01
inp = 7.966138e-01
l1#branch = 0.000000e+00
ldo_out = 9.528230e-01
m.xm1.msky130_fd_pr__nfet_g5v0d10v5#body = 1.329512e-11
m.xm1.msky130_fd_pr__nfet_g5v0d10v5#dbody = 3.217542e-11
m.xm1.msky130_fd_pr__nfet_g5v0d10v5#sbody = 7.709945e-12
m.xm2.msky130_fd_pr__pfet_g5v0d10v5#body = 2.300000e+00
m.xm2.msky130_fd_pr__pfet_g5v0d10v5#dbody = 2.300000e+00
m.xm2.msky130_fd_pr__pfet_g5v0d10v5#sbody = 2.300000e+00
m.xm3.msky130_fd_pr__pfet_g5v0d10v5#body = 2.300000e+00
m.xm3.msky130_fd_pr__pfet_g5v0d10v5#dbody = 2.300000e+00
m.xm3.msky130_fd_pr__pfet_g5v0d10v5#sbody = 2.300000e+00
m.xm4.msky130_fd_pr__pfet_g5v0d10v5#body = 2.300000e+00
m.xm4.msky130_fd_pr__pfet_g5v0d10v5#dbody = 2.300000e+00
m.xm4.msky130_fd_pr__pfet_g5v0d10v5#sbody = 2.300000e+00
m.xm5.msky130_fd_pr__pfet_g5v0d10v5#body = 2.300000e+00
m.xm5.msky130_fd_pr__pfet_g5v0d10v5#dbody = 2.300000e+00
m.xm5.msky130_fd_pr__pfet_g5v0d10v5#sbody = 2.300000e+00
m.xm6.msky130_fd_pr__nfet_g5v0d10v5#body = 1.083222e-11
m.xm6.msky130_fd_pr__nfet_g5v0d10v5#dbody = 2.708054e-11
m.xm6.msky130_fd_pr__nfet_g5v0d10v5#sbody = 5.416110e-12
m.xm7.msky130_fd_pr__pfet_g5v0d10v5#body = 2.300000e+00
m.xm7.msky130_fd_pr__pfet_g5v0d10v5#dbody = 2.300000e+00
m.xm7.msky130_fd_pr__pfet_g5v0d10v5#sbody = 2.300000e+00
m.xm8.msky130_fd_pr__pfet_g5v0d10v5#body = 2.300000e+00
m.xm8.msky130_fd_pr__pfet_g5v0d10v5#dbody = 2.300000e+00
m.xm8.msky130_fd_pr__pfet_g5v0d10v5#sbody = 2.300000e+00
m.xm9.msky130_fd_pr__nfet_g5v0d10v5#body = 1.622681e-11
m.xm9.msky130_fd_pr__nfet_g5v0d10v5#dbody = 4.053513e-11
m.xm9.msky130_fd_pr__nfet_g5v0d10v5#sbody = 8.145281e-12
m.xm10.msky130_fd_pr__nfet_g5v0d10v5#body = 1.347153e-11
m.xm10.msky130_fd_pr__nfet_g5v0d10v5#dbody = 3.364694e-11
m.xm10.msky130_fd_pr__nfet_g5v0d10v5#sbody = 6.767641e-12
m.xm11.msky130_fd_pr__pfet_g5v0d10v5#body = 2.300000e+00
m.xm11.msky130_fd_pr__pfet_g5v0d10v5#dbody = 2.300000e+00
m.xm11.msky130_fd_pr__pfet_g5v0d10v5#sbody = 2.300000e+00
m.xm12.msky130_fd_pr__pfet_g5v0d10v5#body = 2.300000e+00
m.xm12.msky130_fd_pr__pfet_g5v0d10v5#dbody = 2.300000e+00
m.xm12.msky130_fd_pr__pfet_g5v0d10v5#sbody = 2.300000e+00
m.xm13.msky130_fd_pr__nfet_g5v0d10v5#body = 1.593780e-14
m.xm13.msky130_fd_pr__nfet_g5v0d10v5#dbody = 3.984440e-14
m.xm13.msky130_fd_pr__nfet_g5v0d10v5#sbody = 7.969007e-15
m.xm14.msky130_fd_pr__pfet_g5v0d10v5#body = 2.300000e+00
m.xm14.msky130_fd_pr__pfet_g5v0d10v5#dbody = 2.300000e+00
m.xm14.msky130_fd_pr__pfet_g5v0d10v5#sbody = 2.300000e+00
m.xm15.msky130_fd_pr__nfet_g5v0d10v5#body = 3.600416e-12
m.xm15.msky130_fd_pr__nfet_g5v0d10v5#dbody = 9.001041e-12
m.xm15.msky130_fd_pr__nfet_g5v0d10v5#sbody = 1.800208e-12
m.xm16.msky130_fd_pr__nfet_g5v0d10v5#body = 3.871317e-11
m.xm16.msky130_fd_pr__nfet_g5v0d10v5#dbody = 7.685670e-11
m.xm16.msky130_fd_pr__nfet_g5v0d10v5#sbody = 3.928280e-11
m.xm17.msky130_fd_pr__pfet_g5v0d10v5#body = 2.300000e+00
m.xm17.msky130_fd_pr__pfet_g5v0d10v5#dbody = 2.300000e+00
m.xm17.msky130_fd_pr__pfet_g5v0d10v5#sbody = 2.300000e+00
m.xm18.msky130_fd_pr__nfet_g5v0d10v5#body = 1.412579e-11
m.xm18.msky130_fd_pr__nfet_g5v0d10v5#dbody = 3.531446e-11
m.xm18.msky130_fd_pr__nfet_g5v0d10v5#sbody = 7.062900e-12
m.xm19.msky130_fd_pr__nfet_g5v0d10v5#body = 1.399186e-11
m.xm19.msky130_fd_pr__nfet_g5v0d10v5#dbody = 3.391728e-11
m.xm19.msky130_fd_pr__nfet_g5v0d10v5#sbody = 8.058316e-12
m.xm20.msky130_fd_pr__nfet_g5v0d10v5#body = 1.078217e-11
m.xm20.msky130_fd_pr__nfet_g5v0d10v5#dbody = 2.695542e-11
m.xm20.msky130_fd_pr__nfet_g5v0d10v5#sbody = 5.391092e-12
m.xm22.msky130_fd_pr__nfet_g5v0d10v5#body = 5.312215e-13
m.xm22.msky130_fd_pr__nfet_g5v0d10v5#dbody = 1.328052e-12
m.xm22.msky130_fd_pr__nfet_g5v0d10v5#sbody = 2.656121e-13
m.xm24.msky130_fd_pr__pfet_g5v0d10v5#body = 2.300000e+00
m.xm24.msky130_fd_pr__pfet_g5v0d10v5#dbody = 2.300000e+00
m.xm24.msky130_fd_pr__pfet_g5v0d10v5#sbody = 2.300000e+00
m.xm26.msky130_fd_pr__pfet_g5v0d10v5#body = 2.300000e+00
m.xm26.msky130_fd_pr__pfet_g5v0d10v5#dbody = 2.300000e+00
m.xm26.msky130_fd_pr__pfet_g5v0d10v5#sbody = 2.300000e+00
mir = 1.021110e+00
net1 = 6.108122e-01
net2 = 2.880183e-01
net3 = 6.113255e-01
net4 = 4.249151e-02
net5 = 1.076849e+00
net6 = 8.665695e-01
net7 = 6.108914e-01
net8 = 1.076444e+00
net9 = 1.296866e+00
net10 = 1.274939e-03
net11 = 1.130061e+00
net12 = 1.130061e+00
net13 = 0.000000e+00
out = 1.130061e+00
pos = 5.796791e-01
q.xq2.qsky130_fd_pr__pnp_05v5_w0p68l0p68#collcx = 3.508047e-07
q.xq3.qsky130_fd_pr__pnp_05v5_w0p68l0p68#collcx = 3.434826e-07
q.xq4.qsky130_fd_pr__pnp_05v5_w0p68l0p68#collcx = 3.434826e-07
q.xq8.qsky130_fd_pr__pnp_05v5_w0p68l0p68#collcx = 3.434826e-07
q.xq10.qsky130_fd_pr__pnp_05v5_w0p68l0p68#collcx = 3.434826e-07
q.xq12.qsky130_fd_pr__pnp_05v5_w0p68l0p68#collcx = 3.434826e-07
q.xq14.qsky130_fd_pr__pnp_05v5_w0p68l0p68#collcx = 3.434826e-07
q.xq16.qsky130_fd_pr__pnp_05v5_w0p68l0p68#collcx = 3.434826e-07
q.xq18.qsky130_fd_pr__pnp_05v5_w0p68l0p68#collcx = 3.434826e-07
vb = 8.625719e-01
vdd = 2.300000e+00
vs#branch = -5.35188e-03
vt#branch = 0.000000e+00
xc1.a = 0.000000e+00
xc1.b1 = 0.000000e+00
xc3.a = 1.130061e+00
xc3.b1 = 1.130061e+00
xr1.xsky130_fd_pr__res_xhigh_po_0p69.ra = 6.123695e-01
xr2.xsky130_fd_pr__res_xhigh_po_0p69.ra = 6.128036e-01
xr3.xsky130_fd_pr__res_xhigh_po_0p69.ra = 1.516822e-03
xr4.xsky130_fd_pr__res_xhigh_po_0p69.ra = 6.108135e-01
xr5.xsky130_fd_pr__res_xhigh_po_0p69.ra = 1.515692e-03
xr6.xsky130_fd_pr__res_xhigh_po_0p69.ra = 1.529183e-03
xr7.xsky130_fd_pr__res_xhigh_po_0p69.ra = 1.130061e+00
xr8.xsky130_fd_pr__res_xhigh_po_0p69.ra = 5.820530e-01
xr9.xsky130_fd_pr__res_xhigh_po_0p69.ra = 2.408957e-03
Doing analysis at TEMP = 0.000000 and TNOM = 27.000000


No. of Data Rows : 91
Error: no such vector PM
Note: Starting true gmin stepping
Trying gmin =   1.0000E-03 Note: One successful gmin step
Trying gmin =   1.0000E-04 Note: One successful gmin step
Trying gmin =   1.0000E-05 Note: One successful gmin step
Trying gmin =   1.0000E-06 Note: One successful gmin step
Trying gmin =   1.0000E-07 Note: One successful gmin step
Trying gmin =   1.0000E-08 Warning: Further gmin increment
Trying gmin =   5.6234E-08 Note: One successful gmin step
Trying gmin =   2.3714E-08 Warning: Further gmin increment
Trying gmin =   4.5316E-08 Warning: Further gmin increment
Trying gmin =   5.3280E-08 Note: One successful gmin step
Trying gmin =   4.9137E-08 Note: One successful gmin step
Trying gmin =   4.3518E-08 Warning: Further gmin increment
Trying gmin =   4.7668E-08 Note: One successful gmin step
Trying gmin =   4.5546E-08 Warning: Further gmin increment
Trying gmin =   4.7128E-08 Warning: Further gmin increment
Trying gmin =   4.7532E-08 Warning: Further gmin increment
Trying gmin =   4.7634E-08 Note: One successful gmin step
Trying gmin =   4.7583E-08 Note: One successful gmin step
Trying gmin =   4.7507E-08 Warning: Further gmin increment
Trying gmin =   4.7564E-08 Note: One successful gmin step
Trying gmin =   4.7535E-08 Warning: Further gmin increment
Trying gmin =   4.7557E-08 Note: One successful gmin step
Trying gmin =   4.7546E-08 Note: One successful gmin step
Trying gmin =   4.7530E-08 Warning: Further gmin increment
Trying gmin =   4.7542E-08 Note: One successful gmin step
Trying gmin =   4.7536E-08 Warning: Further gmin increment
Trying gmin =   4.7540E-08 Warning: Last gmin step failed
Warning: True gmin stepping failed
Note: Starting dynamic gmin stepping
Trying gmin =   1.0000E-03 Note: One successful gmin step
Trying gmin =   1.0000E-04 Note: One successful gmin step
Trying gmin =   1.0000E-05 Note: One successful gmin step
Trying gmin =   1.0000E-06 Warning: Further gmin increment
Trying gmin =   5.6234E-06 Note: One successful gmin step
Trying gmin =   3.1623E-06 Note: One successful gmin step
Trying gmin =   1.3335E-06 Note: One successful gmin step
Trying gmin =   3.6517E-07 Note: One successful gmin step
Trying gmin =   5.2330E-08 Warning: Further gmin increment
Trying gmin =   2.2468E-07 Note: One successful gmin step
Trying gmin =   1.0843E-07 Warning: Further gmin increment
Trying gmin =   1.8727E-07 Warning: Further gmin increment
Trying gmin =   2.1468E-07 Warning: Further gmin increment
Trying gmin =   2.2214E-07 Note: One successful gmin step
Trying gmin =   2.1837E-07 Warning: Further gmin increment
Trying gmin =   2.2119E-07 Note: One successful gmin step
Trying gmin =   2.1978E-07 Warning: Further gmin increment
Trying gmin =   2.2084E-07 Warning: Further gmin increment
Trying gmin =   2.2110E-07 Note: One successful gmin step
Trying gmin =   2.2097E-07 Warning: Further gmin increment
Trying gmin =   2.2107E-07 Note: One successful gmin step
Trying gmin =   2.2102E-07 Note: One successful gmin step
Trying gmin =   2.2094E-07 Warning: Further gmin increment
Trying gmin =   2.2100E-07 Warning: Further gmin increment
Trying gmin =   2.2101E-07 Note: One successful gmin step
Trying gmin =   2.2101E-07 Note: One successful gmin step
Trying gmin =   2.2100E-07 Warning: Last gmin step failed
Warning: Dynamic gmin stepping failed
Note: Starting source stepping
Supplies reduced to   0.0000% Note: One successful source step
Supplies reduced to   0.1000% Note: One successful source step
Supplies reduced to   0.2000% Note: One successful source step
Supplies reduced to   0.3500% Note: One successful source step
Supplies reduced to   0.5750% Note: One successful source step
Supplies reduced to   0.9125% Note: One successful source step
Supplies reduced to   1.4188% Note: One successful source step
Supplies reduced to   2.1781% Note: One successful source step
Supplies reduced to   3.3172% Note: One successful source step
Supplies reduced to   5.0258% Note: One successful source step
Supplies reduced to   7.5887% Note: One successful source step
Supplies reduced to  11.4330% Note: One successful source step
Supplies reduced to  17.1995% Note: One successful source step
Supplies reduced to  25.8493% Note: One successful source step
Supplies reduced to  38.8239% Supplies reduced to  25.8493% Note: One successful source step
Supplies reduced to  26.8493% Note: One successful source step
Supplies reduced to  28.3493% Note: One successful source step
Supplies reduced to  30.5993% Note: One successful source step
Supplies reduced to  33.9743% Note: One successful source step
Supplies reduced to  39.0368% Supplies reduced to  33.9743% Note: One successful source step
Supplies reduced to  34.7336% Note: One successful source step
Supplies reduced to  35.8727% Note: One successful source step
Supplies reduced to  37.5813% Note: One successful source step
Supplies reduced to  40.1442% Note: One successful source step
Supplies reduced to  43.9885% Note: One successful source step
Supplies reduced to  49.7550% Note: One successful source step
Supplies reduced to  58.4048% Note: One successful source step
Supplies reduced to  67.0545% Note: One successful source step
Supplies reduced to  80.0292% Note: One successful source step
Supplies reduced to  99.4911% Supplies reduced to  80.0292% Note: One successful source step
Supplies reduced to  81.0292% Note: One successful source step
Supplies reduced to  82.5292% Note: One successful source step
Supplies reduced to  84.7792% Note: One successful source step
Supplies reduced to  88.1542% Note: One successful source step
Supplies reduced to  93.2167% Note: One successful source step
Supplies reduced to 100.0000% Supplies reduced to  93.2167% Note: One successful source step
Supplies reduced to  94.2167% Supplies reduced to  93.2167% Note: One successful source step
Supplies reduced to  93.3667% Note: One successful source step
Supplies reduced to  93.5917% Note: One successful source step
Supplies reduced to  93.9292% Supplies reduced to  93.5917% Note: One successful source step
Supplies reduced to  93.6423% Note: One successful source step
Supplies reduced to  93.7182% Note: One successful source step
Supplies reduced to  93.8321% Note: One successful source step
Supplies reduced to  94.0030% Supplies reduced to  93.8321% Note: One successful source step
Supplies reduced to  93.8578% Supplies reduced to  93.8321% Note: One successful source step
Supplies reduced to  93.8360% Note: One successful source step
Supplies reduced to  93.8418% Supplies reduced to  93.8360% Note: One successful source step
Supplies reduced to  93.8369% Note: One successful source step
Supplies reduced to  93.8382% Note: One successful source step
Supplies reduced to  93.8401% Supplies reduced to  93.8382% Note: One successful source step
Supplies reduced to  93.8384% Note: One successful source step
Supplies reduced to  93.8389% Note: One successful source step
Supplies reduced to  93.8395% Supplies reduced to  93.8389% Note: One successful source step
Supplies reduced to  93.8390% Note: One successful source step
Supplies reduced to  93.8391% Note: One successful source step
Supplies reduced to  93.8393% Supplies reduced to  93.8391% Warning: source stepping failed
doAnalyses: Too many iterations without convergence

dc simulation(s) aborted
Error(parse.c--checkvalid): vldo_sup_2_8: zero length vector.
Error: RHS "abs((vldo_sup_2_8-vldo_sup_2)/0.8)" invalid
Error(parse.c--checkvalid): line_reg: zero length vector.
Error(parse.c--checkvalid): vin: zero length vector.
Error: RHS "vin-1.764" invalid
Error(parse.c--checkvalid): dropout: zero length vector.
Error: no such vector dropout
Note: No ".plot", ".print", or ".fourier" lines; no simulations run

Error: measure  pm  (AT) : out of interval
 meas ac pm find p when vdb(ldo_out)=0 failed!

Doing analysis at TEMP = 0.000000 and TNOM = 27.000000


No. of Data Rows : 91
psrr100             =  -3.393975e+01
psrr100k            =  -4.399480e+00
Doing analysis at TEMP = 0.000000 and TNOM = 27.000000


No. of Data Rows : 86
temp_coeff = 6.896405e+01
Doing analysis at TEMP = 0.000000 and TNOM = 27.000000


Error: measure  vldo_sup_2  (AT) : out of interval
 meas dc vldo_sup_2 find ldo_out at=2 failed!


Error: measure  vldo_sup_2_8  (AT) : out of interval
 meas dc vldo_sup_2_8 find ldo_out at=2.8 failed!


Error: measure  vin  (WHEN) : out of interval
 meas dc vin when v(ldo_out)=1.764 failed!

