 Reference value :  0.00000e+00
No compatibility mode selected!


Circuit: * ldo netlist 

Doing analysis at TEMP = 27.000000 and TNOM = 27.000000


No. of Data Rows : 1
bg_out = 1.195713e+00
inn = 1.228799e+00
inp = 1.228772e+00
l1#branch = 0.000000e+00
ldo_out = 1.798029e+00
m.xm1.msky130_fd_pr__nfet_g5v0d10v5#body = 1.846319e-11
m.xm1.msky130_fd_pr__nfet_g5v0d10v5#dbody = 3.967984e-11
m.xm1.msky130_fd_pr__nfet_g5v0d10v5#sbody = 1.570974e-11
m.xm2.msky130_fd_pr__pfet_g5v0d10v5#body = 2.500000e+00
m.xm2.msky130_fd_pr__pfet_g5v0d10v5#dbody = 2.500000e+00
m.xm2.msky130_fd_pr__pfet_g5v0d10v5#sbody = 2.500000e+00
m.xm3.msky130_fd_pr__pfet_g5v0d10v5#body = 2.500000e+00
m.xm3.msky130_fd_pr__pfet_g5v0d10v5#dbody = 2.500000e+00
m.xm3.msky130_fd_pr__pfet_g5v0d10v5#sbody = 2.500000e+00
m.xm4.msky130_fd_pr__pfet_g5v0d10v5#body = 2.500000e+00
m.xm4.msky130_fd_pr__pfet_g5v0d10v5#dbody = 2.500000e+00
m.xm4.msky130_fd_pr__pfet_g5v0d10v5#sbody = 2.500000e+00
m.xm5.msky130_fd_pr__pfet_g5v0d10v5#body = 2.500000e+00
m.xm5.msky130_fd_pr__pfet_g5v0d10v5#dbody = 2.500000e+00
m.xm5.msky130_fd_pr__pfet_g5v0d10v5#sbody = 2.500000e+00
m.xm6.msky130_fd_pr__nfet_g5v0d10v5#body = 1.218296e-11
m.xm6.msky130_fd_pr__nfet_g5v0d10v5#dbody = 3.045739e-11
m.xm6.msky130_fd_pr__nfet_g5v0d10v5#sbody = 6.091483e-12
m.xm7.msky130_fd_pr__pfet_g5v0d10v5#body = 2.500000e+00
m.xm7.msky130_fd_pr__pfet_g5v0d10v5#dbody = 2.500000e+00
m.xm7.msky130_fd_pr__pfet_g5v0d10v5#sbody = 2.500000e+00
m.xm8.msky130_fd_pr__pfet_g5v0d10v5#body = 2.500000e+00
m.xm8.msky130_fd_pr__pfet_g5v0d10v5#dbody = 2.500000e+00
m.xm8.msky130_fd_pr__pfet_g5v0d10v5#sbody = 2.500000e+00
m.xm9.msky130_fd_pr__nfet_g5v0d10v5#body = 1.912804e-11
m.xm9.msky130_fd_pr__nfet_g5v0d10v5#dbody = 4.231744e-11
m.xm9.msky130_fd_pr__nfet_g5v0d10v5#sbody = 1.506669e-11
m.xm10.msky130_fd_pr__nfet_g5v0d10v5#body = 1.891290e-11
m.xm10.msky130_fd_pr__nfet_g5v0d10v5#dbody = 4.177957e-11
m.xm10.msky130_fd_pr__nfet_g5v0d10v5#sbody = 1.495912e-11
m.xm11.msky130_fd_pr__pfet_g5v0d10v5#body = 2.500000e+00
m.xm11.msky130_fd_pr__pfet_g5v0d10v5#dbody = 2.500000e+00
m.xm11.msky130_fd_pr__pfet_g5v0d10v5#sbody = 2.500000e+00
m.xm12.msky130_fd_pr__pfet_g5v0d10v5#body = 2.500000e+00
m.xm12.msky130_fd_pr__pfet_g5v0d10v5#dbody = 2.500000e+00
m.xm12.msky130_fd_pr__pfet_g5v0d10v5#sbody = 2.500000e+00
m.xm13.msky130_fd_pr__nfet_g5v0d10v5#body = 2.749976e-12
m.xm13.msky130_fd_pr__nfet_g5v0d10v5#dbody = 6.874930e-12
m.xm13.msky130_fd_pr__nfet_g5v0d10v5#sbody = 1.374998e-12
m.xm14.msky130_fd_pr__pfet_g5v0d10v5#body = 2.500000e+00
m.xm14.msky130_fd_pr__pfet_g5v0d10v5#dbody = 2.500000e+00
m.xm14.msky130_fd_pr__pfet_g5v0d10v5#sbody = 2.500000e+00
m.xm15.msky130_fd_pr__nfet_g5v0d10v5#body = 5.446299e-16
m.xm15.msky130_fd_pr__nfet_g5v0d10v5#dbody = 1.361549e-15
m.xm15.msky130_fd_pr__nfet_g5v0d10v5#sbody = 2.723406e-16
m.xm16.msky130_fd_pr__nfet_g5v0d10v5#body = 4.661872e-11
m.xm16.msky130_fd_pr__nfet_g5v0d10v5#dbody = 8.581810e-11
m.xm16.msky130_fd_pr__nfet_g5v0d10v5#sbody = 5.403808e-11
m.xm17.msky130_fd_pr__pfet_g5v0d10v5#body = 2.500000e+00
m.xm17.msky130_fd_pr__pfet_g5v0d10v5#dbody = 2.500000e+00
m.xm17.msky130_fd_pr__pfet_g5v0d10v5#sbody = 2.500000e+00
m.xm18.msky130_fd_pr__nfet_g5v0d10v5#body = 1.671412e-11
m.xm18.msky130_fd_pr__nfet_g5v0d10v5#dbody = 4.178490e-11
m.xm18.msky130_fd_pr__nfet_g5v0d10v5#sbody = 8.357071e-12
m.xm19.msky130_fd_pr__nfet_g5v0d10v5#body = 1.850989e-11
m.xm19.msky130_fd_pr__nfet_g5v0d10v5#dbody = 3.979657e-11
m.xm19.msky130_fd_pr__nfet_g5v0d10v5#sbody = 1.573308e-11
m.xm20.msky130_fd_pr__nfet_g5v0d10v5#body = 1.275213e-11
m.xm20.msky130_fd_pr__nfet_g5v0d10v5#dbody = 3.188031e-11
m.xm20.msky130_fd_pr__nfet_g5v0d10v5#sbody = 6.376076e-12
m.xm22.msky130_fd_pr__nfet_g5v0d10v5#body = 3.241782e-12
m.xm22.msky130_fd_pr__nfet_g5v0d10v5#dbody = 8.104451e-12
m.xm22.msky130_fd_pr__nfet_g5v0d10v5#sbody = 1.620896e-12
m.xm24.msky130_fd_pr__pfet_g5v0d10v5#body = 2.500000e+00
m.xm24.msky130_fd_pr__pfet_g5v0d10v5#dbody = 2.500000e+00
m.xm24.msky130_fd_pr__pfet_g5v0d10v5#sbody = 2.500000e+00
m.xm26.msky130_fd_pr__pfet_g5v0d10v5#body = 2.500000e+00
m.xm26.msky130_fd_pr__pfet_g5v0d10v5#dbody = 2.500000e+00
m.xm26.msky130_fd_pr__pfet_g5v0d10v5#sbody = 2.500000e+00
mir = 1.217581e+00
net1 = 7.306018e-01
net2 = 4.190349e-05
net3 = 7.898532e-01
net4 = 2.587761e-01
net5 = 1.221316e+00
net6 = 9.740700e-01
net7 = 7.898251e-01
net8 = 1.292684e+00
net9 = 1.309896e+00
net10 = 2.198659e-01
net11 = 1.336982e+00
net12 = 1.336982e+00
net13 = 0.000000e+00
out = 1.336982e+00
pos = 1.195867e+00
q.xq2.qsky130_fd_pr__pnp_05v5_w0p68l0p68#collcx = 1.952555e-03
q.xq3.qsky130_fd_pr__pnp_05v5_w0p68l0p68#collcx = 2.474131e-04
q.xq4.qsky130_fd_pr__pnp_05v5_w0p68l0p68#collcx = 2.474131e-04
q.xq8.qsky130_fd_pr__pnp_05v5_w0p68l0p68#collcx = 2.474131e-04
q.xq10.qsky130_fd_pr__pnp_05v5_w0p68l0p68#collcx = 2.474131e-04
q.xq12.qsky130_fd_pr__pnp_05v5_w0p68l0p68#collcx = 2.474131e-04
q.xq14.qsky130_fd_pr__pnp_05v5_w0p68l0p68#collcx = 2.474131e-04
q.xq16.qsky130_fd_pr__pnp_05v5_w0p68l0p68#collcx = 2.474131e-04
q.xq18.qsky130_fd_pr__pnp_05v5_w0p68l0p68#collcx = 2.474131e-04
vb = 1.020038e+00
vdd = 2.500000e+00
vs#branch = -1.01100e-02
vt#branch = 0.000000e+00
xc1.a = 0.000000e+00
xc1.b1 = 0.000000e+00
xc3.a = 1.336982e+00
xc3.b1 = 1.336982e+00
xr1.xsky130_fd_pr__res_xhigh_po_0p69.ra = 7.973930e-01
xr2.xsky130_fd_pr__res_xhigh_po_0p69.ra = 7.974211e-01
xr3.xsky130_fd_pr__res_xhigh_po_0p69.ra = 5.144665e-03
xr4.xsky130_fd_pr__res_xhigh_po_0p69.ra = 7.331264e-01
xr5.xsky130_fd_pr__res_xhigh_po_0p69.ra = 5.144470e-03
xr6.xsky130_fd_pr__res_xhigh_po_0p69.ra = 8.045676e-03
xr7.xsky130_fd_pr__res_xhigh_po_0p69.ra = 1.336982e+00
xr8.xsky130_fd_pr__res_xhigh_po_0p69.ra = 1.209253e+00
xr9.xsky130_fd_pr__res_xhigh_po_0p69.ra = 1.403885e-02
Doing analysis at TEMP = 27.000000 and TNOM = 27.000000


No. of Data Rows : 91
Note: Starting true gmin stepping
Trying gmin =   1.0000E-03 Note: One successful gmin step
Trying gmin =   1.0000E-04 Note: One successful gmin step
Trying gmin =   1.0000E-05 Note: One successful gmin step
Trying gmin =   1.0000E-06 Note: One successful gmin step
Trying gmin =   1.0000E-07 Note: One successful gmin step
Trying gmin =   1.0000E-08 Warning: Further gmin increment
Trying gmin =   5.6234E-08 Warning: Further gmin increment
Trying gmin =   8.6596E-08 Note: One successful gmin step
Trying gmin =   6.9783E-08 Note: One successful gmin step
Trying gmin =   5.0481E-08 Warning: Further gmin increment
Trying gmin =   6.4357E-08 Warning: Further gmin increment
Trying gmin =   6.8385E-08 Note: One successful gmin step
Trying gmin =   6.6340E-08 Note: One successful gmin step
Trying gmin =   6.3387E-08 Warning: Further gmin increment
Trying gmin =   6.5589E-08 Warning: Further gmin increment
Trying gmin =   6.6152E-08 Note: One successful gmin step
Trying gmin =   6.5870E-08 Note: One successful gmin step
Trying gmin =   6.5450E-08 Warning: Further gmin increment
Trying gmin =   6.5765E-08 Note: One successful gmin step
Trying gmin =   6.5607E-08 Warning: Further gmin increment
Trying gmin =   6.5725E-08 Note: One successful gmin step
Trying gmin =   6.5666E-08 Warning: Further gmin increment
Trying gmin =   6.5710E-08 Warning: Further gmin increment
Trying gmin =   6.5721E-08 Note: One successful gmin step
Trying gmin =   6.5716E-08 Warning: Further gmin increment
Trying gmin =   6.5720E-08 Note: One successful gmin step
Trying gmin =   6.5718E-08 Warning: Last gmin step failed
Warning: True gmin stepping failed
Note: Starting dynamic gmin stepping
Trying gmin =   1.0000E-03 Note: One successful gmin step
Trying gmin =   1.0000E-04 Note: One successful gmin step
Trying gmin =   1.0000E-05 Warning: Further gmin increment
Trying gmin =   5.6234E-05 Note: One successful gmin step
Trying gmin =   2.3714E-05 Note: One successful gmin step
Trying gmin =   6.4938E-06 Warning: Further gmin increment
Trying gmin =   1.7154E-05 Note: One successful gmin step
Trying gmin =   1.0554E-05 Warning: Further gmin increment
Trying gmin =   1.5193E-05 Note: One successful gmin step
Trying gmin =   1.2663E-05 Note: One successful gmin step
Trying gmin =   9.6358E-06 Warning: Further gmin increment
Trying gmin =   1.1827E-05 Note: One successful gmin step
Trying gmin =   1.0675E-05 Note: One successful gmin step
Trying gmin =   9.1546E-06 Note: One successful gmin step
Trying gmin =   7.2699E-06 Note: One successful gmin step
Trying gmin =   5.1447E-06 Note: One successful gmin step
Trying gmin =   3.0627E-06 Warning: Further gmin increment
Trying gmin =   4.5190E-06 Note: One successful gmin step
Trying gmin =   3.9694E-06 Note: One successful gmin step
Trying gmin =   3.2678E-06 Note: One successful gmin step
Trying gmin =   2.4409E-06 Note: One successful gmin step
Trying gmin =   1.5758E-06 Note: One successful gmin step
Trying gmin =   8.1735E-07 Warning: Further gmin increment
Trying gmin =   1.3373E-06 Warning: Further gmin increment
Trying gmin =   1.5124E-06 Note: One successful gmin step
Trying gmin =   1.4222E-06 Note: One successful gmin step
Trying gmin =   1.2968E-06 Note: One successful gmin step
Trying gmin =   1.1291E-06 Note: One successful gmin step
Trying gmin =   9.1732E-07 Note: One successful gmin step
Trying gmin =   6.7176E-07 Note: One successful gmin step
Trying gmin =   4.2098E-07 Note: One successful gmin step
Trying gmin =   2.0884E-07 Note: One successful gmin step
Trying gmin =   7.2974E-08 Note: One successful gmin step
Trying gmin =   1.5073E-08 Note: One successful gmin step
Trying gmin =   1.5073E-09 Note: One successful gmin step
Trying gmin =   1.5073E-10 Note: One successful gmin step
Trying gmin =   1.5073E-11 Note: One successful gmin step
Trying gmin =   1.5073E-12 Note: One successful gmin step
Trying gmin =   1.0000E-12 Note: One successful gmin step
Note: Dynamic gmin stepping completed
 Reference value :  2.80000e+00Note: Starting true gmin stepping
Trying gmin =   1.0000E-03 Note: One successful gmin step
Trying gmin =   1.0000E-04 Note: One successful gmin step
Trying gmin =   1.0000E-05 Note: One successful gmin step
Trying gmin =   1.0000E-06 Note: One successful gmin step
Trying gmin =   1.0000E-07 Note: One successful gmin step
Trying gmin =   1.0000E-08 Note: One successful gmin step
Trying gmin =   1.0000E-09 Warning: Further gmin increment
Trying gmin =   5.6234E-09 Note: One successful gmin step
Trying gmin =   2.3714E-09 Note: One successful gmin step
Trying gmin =   6.4938E-10 Warning: Further gmin increment
Trying gmin =   1.7154E-09 Note: One successful gmin step
Trying gmin =   1.0554E-09 Note: One successful gmin step
Trying gmin =   8.2788E-10 Note: One successful gmin step
Trying gmin =   5.7513E-10 Note: One successful gmin step
Trying gmin =   3.3301E-10 Note: One successful gmin step
Trying gmin =   1.4672E-10 Warning: Further gmin increment
Trying gmin =   2.7131E-10 Warning: Further gmin increment
Trying gmin =   3.1638E-10 Warning: Further gmin increment
Trying gmin =   3.2878E-10 Warning: Further gmin increment
Trying gmin =   3.3195E-10 Note: One successful gmin step
Trying gmin =   3.3036E-10 Note: One successful gmin step
Trying gmin =   3.2799E-10 Warning: Further gmin increment
Trying gmin =   3.2976E-10 Note: One successful gmin step
Trying gmin =   3.2887E-10 Warning: Further gmin increment
Trying gmin =   3.2954E-10 Note: One successful gmin step
Trying gmin =   3.2921E-10 Note: One successful gmin step
Trying gmin =   3.2871E-10 Note: One successful gmin step
Trying gmin =   3.2796E-10 Note: One successful gmin step
Trying gmin =   3.2684E-10 Note: One successful gmin step
Trying gmin =   3.2517E-10 Note: One successful gmin step
Trying gmin =   3.2268E-10 Note: One successful gmin step
Trying gmin =   3.1897E-10 Note: One successful gmin step
Trying gmin =   3.1350E-10 Note: One successful gmin step
Trying gmin =   3.0547E-10 Note: One successful gmin step
Trying gmin =   2.9380E-10 Note: One successful gmin step
Trying gmin =   2.7713E-10 Note: One successful gmin step
Trying gmin =   2.5388E-10 Note: One successful gmin step
Trying gmin =   2.2261E-10 Note: One successful gmin step
Trying gmin =   1.8278E-10 Note: One successful gmin step
Trying gmin =   1.3598E-10 Note: One successful gmin step
Trying gmin =   8.7264E-11 Note: One successful gmin step
Trying gmin =   4.4860E-11 Note: One successful gmin step
Trying gmin =   1.6535E-11 Note: One successful gmin step
Trying gmin =   3.7000E-12 Note: One successful gmin step
Trying gmin =   1.0000E-12 Note: One successful gmin step
Note: True gmin stepping completed
 Reference value :  1.32000e+00Note: Starting true gmin stepping
Trying gmin =   1.0000E-03 Note: One successful gmin step
Trying gmin =   1.0000E-04 Note: One successful gmin step
Trying gmin =   1.0000E-05 Note: One successful gmin step
Trying gmin =   1.0000E-06 Note: One successful gmin step
Trying gmin =   1.0000E-07 Note: One successful gmin step
Trying gmin =   1.0000E-08 Note: One successful gmin step
Trying gmin =   1.0000E-09 Note: One successful gmin step
Trying gmin =   1.0000E-10 Warning: Further gmin increment
Trying gmin =   5.6234E-10 Note: One successful gmin step
Trying gmin =   2.3714E-10 Warning: Further gmin increment
Trying gmin =   4.5316E-10 Note: One successful gmin step
Trying gmin =   3.2781E-10 Note: One successful gmin step
Trying gmin =   2.0169E-10 Warning: Further gmin increment
Trying gmin =   2.9033E-10 Note: One successful gmin step
Trying gmin =   2.4199E-10 Warning: Further gmin increment
Trying gmin =   2.7741E-10 Note: One successful gmin step
Trying gmin =   2.5909E-10 Note: One successful gmin step
Trying gmin =   2.3386E-10 Warning: Further gmin increment
Trying gmin =   2.5254E-10 Note: One successful gmin step
Trying gmin =   2.4302E-10 Note: One successful gmin step
Trying gmin =   2.3386E-10 Note: One successful gmin step
Trying gmin =   2.2076E-10 Note: One successful gmin step
Trying gmin =   2.0248E-10 Note: One successful gmin step
Trying gmin =   1.7786E-10 Note: One successful gmin step
Trying gmin =   1.4642E-10 Note: One successful gmin step
Trying gmin =   1.0937E-10 Note: One successful gmin step
Trying gmin =   7.0606E-11 Note: One successful gmin step
Trying gmin =   3.6623E-11 Note: One successful gmin step
Trying gmin =   1.3681E-11 Note: One successful gmin step
Trying gmin =   3.1237E-12 Note: One successful gmin step
Trying gmin =   1.0000E-12 Note: One successful gmin step
Note: True gmin stepping completed
 Reference value :  1.30000e+00Note: Starting true gmin stepping
Trying gmin =   1.0000E-03 Note: One successful gmin step
Trying gmin =   1.0000E-04 Note: One successful gmin step
Trying gmin =   1.0000E-05 Note: One successful gmin step
Trying gmin =   1.0000E-06 Note: One successful gmin step
Trying gmin =   1.0000E-07 Note: One successful gmin step
Trying gmin =   1.0000E-08 Note: One successful gmin step
Trying gmin =   1.0000E-09 Note: One successful gmin step
Trying gmin =   1.0000E-10 Note: One successful gmin step
Trying gmin =   1.0000E-11 Note: One successful gmin step
Trying gmin =   1.0000E-12 Note: One successful gmin step
Trying gmin =   1.0000E-12 Warning: Last gmin step failed
Warning: True gmin stepping failed
Note: Starting dynamic gmin stepping
Trying gmin =   1.0000E-03 Note: One successful gmin step
Trying gmin =   1.0000E-04 Note: One successful gmin step
Trying gmin =   1.0000E-05 Note: One successful gmin step
Trying gmin =   1.0000E-06 Note: One successful gmin step
Trying gmin =   1.0000E-07 Note: One successful gmin step
Trying gmin =   1.0000E-08 Note: One successful gmin step
Trying gmin =   1.0000E-09 Note: One successful gmin step
Trying gmin =   1.0000E-10 Note: One successful gmin step
Trying gmin =   1.0000E-11 Note: One successful gmin step
Trying gmin =   1.0000E-12 Note: One successful gmin step
Trying gmin =   1.0000E-12 Note: One successful gmin step
Note: Dynamic gmin stepping completed
pm                  =  -9.999001e+01
Doing analysis at TEMP = 27.000000 and TNOM = 27.000000


No. of Data Rows : 91
psrr100             =  -8.385134e+01
psrr100k            =  -2.520641e+01
Doing analysis at TEMP = 27.000000 and TNOM = 27.000000


No. of Data Rows : 86
temp_coeff = 1.228425e+02
Doing analysis at TEMP = 27.000000 and TNOM = 27.000000


No. of Data Rows : 141
vldo_sup_2          =  1.797890e+00
vldo_sup_2_8        =  1.798036e+00
line_reg = 1.825000e-04
Note: No ".plot", ".print", or ".fourier" lines; no simulations run
vin                 =  1.785405e+00
dropout = 2.140500e-02
