 Reference value :  0.00000e+00
No compatibility mode selected!


Circuit: * ldo netlist 

Doing analysis at TEMP = 27.000000 and TNOM = 27.000000


No. of Data Rows : 1
bg_out = 1.192588e+00
inn = 1.222530e+00
inp = 1.222517e+00
l1#branch = -5.55112e-17
ldo_out = 1.793351e+00
m.xm1.msky130_fd_pr__nfet_g5v0d10v5#body = 1.975997e-11
m.xm1.msky130_fd_pr__nfet_g5v0d10v5#dbody = 4.213757e-11
m.xm1.msky130_fd_pr__nfet_g5v0d10v5#sbody = 1.714233e-11
m.xm2.msky130_fd_pr__pfet_g5v0d10v5#body = 2.500000e+00
m.xm2.msky130_fd_pr__pfet_g5v0d10v5#dbody = 2.500000e+00
m.xm2.msky130_fd_pr__pfet_g5v0d10v5#sbody = 2.500000e+00
m.xm3.msky130_fd_pr__pfet_g5v0d10v5#body = 2.500000e+00
m.xm3.msky130_fd_pr__pfet_g5v0d10v5#dbody = 2.500000e+00
m.xm3.msky130_fd_pr__pfet_g5v0d10v5#sbody = 2.500000e+00
m.xm4.msky130_fd_pr__pfet_g5v0d10v5#body = 2.500000e+00
m.xm4.msky130_fd_pr__pfet_g5v0d10v5#dbody = 2.500000e+00
m.xm4.msky130_fd_pr__pfet_g5v0d10v5#sbody = 2.500000e+00
m.xm5.msky130_fd_pr__pfet_g5v0d10v5#body = 2.500000e+00
m.xm5.msky130_fd_pr__pfet_g5v0d10v5#dbody = 2.500000e+00
m.xm5.msky130_fd_pr__pfet_g5v0d10v5#sbody = 2.500000e+00
m.xm6.msky130_fd_pr__nfet_g5v0d10v5#body = 1.171204e-11
m.xm6.msky130_fd_pr__nfet_g5v0d10v5#dbody = 2.928008e-11
m.xm6.msky130_fd_pr__nfet_g5v0d10v5#sbody = 5.856023e-12
m.xm7.msky130_fd_pr__pfet_g5v0d10v5#body = 2.500000e+00
m.xm7.msky130_fd_pr__pfet_g5v0d10v5#dbody = 2.500000e+00
m.xm7.msky130_fd_pr__pfet_g5v0d10v5#sbody = 2.500000e+00
m.xm8.msky130_fd_pr__pfet_g5v0d10v5#body = 2.500000e+00
m.xm8.msky130_fd_pr__pfet_g5v0d10v5#dbody = 2.500000e+00
m.xm8.msky130_fd_pr__pfet_g5v0d10v5#sbody = 2.500000e+00
m.xm9.msky130_fd_pr__nfet_g5v0d10v5#body = 2.037875e-11
m.xm9.msky130_fd_pr__nfet_g5v0d10v5#dbody = 4.458045e-11
m.xm9.msky130_fd_pr__nfet_g5v0d10v5#sbody = 1.655580e-11
m.xm10.msky130_fd_pr__nfet_g5v0d10v5#body = 2.014490e-11
m.xm10.msky130_fd_pr__nfet_g5v0d10v5#dbody = 4.399581e-11
m.xm10.msky130_fd_pr__nfet_g5v0d10v5#sbody = 1.643887e-11
m.xm11.msky130_fd_pr__pfet_g5v0d10v5#body = 2.500000e+00
m.xm11.msky130_fd_pr__pfet_g5v0d10v5#dbody = 2.500000e+00
m.xm11.msky130_fd_pr__pfet_g5v0d10v5#sbody = 2.500000e+00
m.xm12.msky130_fd_pr__pfet_g5v0d10v5#body = 2.500000e+00
m.xm12.msky130_fd_pr__pfet_g5v0d10v5#dbody = 2.500000e+00
m.xm12.msky130_fd_pr__pfet_g5v0d10v5#sbody = 2.500000e+00
m.xm13.msky130_fd_pr__nfet_g5v0d10v5#body = 3.181854e-12
m.xm13.msky130_fd_pr__nfet_g5v0d10v5#dbody = 7.954625e-12
m.xm13.msky130_fd_pr__nfet_g5v0d10v5#sbody = 1.590937e-12
m.xm14.msky130_fd_pr__pfet_g5v0d10v5#body = 2.500000e+00
m.xm14.msky130_fd_pr__pfet_g5v0d10v5#dbody = 2.500000e+00
m.xm14.msky130_fd_pr__pfet_g5v0d10v5#sbody = 2.500000e+00
m.xm15.msky130_fd_pr__nfet_g5v0d10v5#body = 6.427739e-16
m.xm15.msky130_fd_pr__nfet_g5v0d10v5#dbody = 1.606892e-15
m.xm15.msky130_fd_pr__nfet_g5v0d10v5#sbody = 3.214296e-16
m.xm16.msky130_fd_pr__nfet_g5v0d10v5#body = 4.654032e-11
m.xm16.msky130_fd_pr__nfet_g5v0d10v5#dbody = 8.577885e-11
m.xm16.msky130_fd_pr__nfet_g5v0d10v5#sbody = 5.384211e-11
m.xm17.msky130_fd_pr__pfet_g5v0d10v5#body = 2.500000e+00
m.xm17.msky130_fd_pr__pfet_g5v0d10v5#dbody = 2.500000e+00
m.xm17.msky130_fd_pr__pfet_g5v0d10v5#sbody = 2.500000e+00
m.xm18.msky130_fd_pr__nfet_g5v0d10v5#body = 2.182722e-11
m.xm18.msky130_fd_pr__nfet_g5v0d10v5#dbody = 5.379020e-11
m.xm18.msky130_fd_pr__nfet_g5v0d10v5#sbody = 1.091362e-11
m.xm19.msky130_fd_pr__nfet_g5v0d10v5#body = 1.978270e-11
m.xm19.msky130_fd_pr__nfet_g5v0d10v5#dbody = 4.219441e-11
m.xm19.msky130_fd_pr__nfet_g5v0d10v5#sbody = 1.715370e-11
m.xm20.msky130_fd_pr__nfet_g5v0d10v5#body = 1.198178e-11
m.xm20.msky130_fd_pr__nfet_g5v0d10v5#dbody = 2.995444e-11
m.xm20.msky130_fd_pr__nfet_g5v0d10v5#sbody = 5.990902e-12
m.xm22.msky130_fd_pr__nfet_g5v0d10v5#body = 3.633887e-12
m.xm22.msky130_fd_pr__nfet_g5v0d10v5#dbody = 9.084711e-12
m.xm22.msky130_fd_pr__nfet_g5v0d10v5#sbody = 1.816948e-12
m.xm24.msky130_fd_pr__pfet_g5v0d10v5#body = 2.500000e+00
m.xm24.msky130_fd_pr__pfet_g5v0d10v5#dbody = 2.500000e+00
m.xm24.msky130_fd_pr__pfet_g5v0d10v5#sbody = 2.500000e+00
m.xm26.msky130_fd_pr__pfet_g5v0d10v5#body = 2.500000e+00
m.xm26.msky130_fd_pr__pfet_g5v0d10v5#dbody = 2.500000e+00
m.xm26.msky130_fd_pr__pfet_g5v0d10v5#sbody = 2.500000e+00
mir = 1.289956e+00
net1 = 7.251374e-01
net2 = 4.945779e-05
net3 = 7.846887e-01
net4 = 2.901462e-01
net5 = 1.291775e+00
net6 = 9.363980e-01
net7 = 7.846751e-01
net8 = 1.356696e+00
net9 = 1.375404e+00
net10 = 2.544178e-01
net11 = 1.714933e+00
net12 = 1.714933e+00
net13 = 0.000000e+00
out = 1.714933e+00
pos = 1.192756e+00
q.xq2.qsky130_fd_pr__pnp_05v5_w0p68l0p68#collcx = 2.094521e-03
q.xq3.qsky130_fd_pr__pnp_05v5_w0p68l0p68#collcx = 2.637447e-04
q.xq4.qsky130_fd_pr__pnp_05v5_w0p68l0p68#collcx = 2.637447e-04
q.xq8.qsky130_fd_pr__pnp_05v5_w0p68l0p68#collcx = 2.637447e-04
q.xq10.qsky130_fd_pr__pnp_05v5_w0p68l0p68#collcx = 2.637447e-04
q.xq12.qsky130_fd_pr__pnp_05v5_w0p68l0p68#collcx = 2.637447e-04
q.xq14.qsky130_fd_pr__pnp_05v5_w0p68l0p68#collcx = 2.637447e-04
q.xq16.qsky130_fd_pr__pnp_05v5_w0p68l0p68#collcx = 2.637447e-04
q.xq18.qsky130_fd_pr__pnp_05v5_w0p68l0p68#collcx = 2.637447e-04
vb = 9.584118e-01
vdd = 2.500000e+00
vs#branch = -1.71714e-04
vt#branch = 0.000000e+00
xc1.a = 0.000000e+00
xc1.b1 = 0.000000e+00
xc3.a = 1.714933e+00
xc3.b1 = 1.714933e+00
xr1.xsky130_fd_pr__res_xhigh_po_0p69.ra = 7.922234e-01
xr2.xsky130_fd_pr__res_xhigh_po_0p69.ra = 7.922370e-01
xr3.xsky130_fd_pr__res_xhigh_po_0p69.ra = 5.108828e-03
xr4.xsky130_fd_pr__res_xhigh_po_0p69.ra = 7.276755e-01
xr5.xsky130_fd_pr__res_xhigh_po_0p69.ra = 5.108734e-03
xr6.xsky130_fd_pr__res_xhigh_po_0p69.ra = 8.022782e-03
xr7.xsky130_fd_pr__res_xhigh_po_0p69.ra = 1.714933e+00
xr8.xsky130_fd_pr__res_xhigh_po_0p69.ra = 1.206105e+00
xr9.xsky130_fd_pr__res_xhigh_po_0p69.ra = 1.399910e-02
Doing analysis at TEMP = 27.000000 and TNOM = 27.000000


No. of Data Rows : 91
Note: Starting true gmin stepping
Trying gmin =   1.0000E-03 Note: One successful gmin step
Trying gmin =   1.0000E-04 Note: One successful gmin step
Trying gmin =   1.0000E-05 Note: One successful gmin step
Trying gmin =   1.0000E-06 Note: One successful gmin step
Trying gmin =   1.0000E-07 Note: One successful gmin step
Trying gmin =   1.0000E-08 Warning: Further gmin increment
Trying gmin =   5.6234E-08 Note: One successful gmin step
Trying gmin =   2.3714E-08 Warning: Further gmin increment
Trying gmin =   4.5316E-08 Warning: Further gmin increment
Trying gmin =   5.3280E-08 Note: One successful gmin step
Trying gmin =   4.9137E-08 Warning: Further gmin increment
Trying gmin =   5.2212E-08 Warning: Further gmin increment
Trying gmin =   5.3011E-08 Note: One successful gmin step
Trying gmin =   5.2610E-08 Note: One successful gmin step
Trying gmin =   5.2015E-08 Warning: Further gmin increment
Trying gmin =   5.2461E-08 Warning: Further gmin increment
Trying gmin =   5.2573E-08 Warning: Further gmin increment
Trying gmin =   5.2601E-08 Note: One successful gmin step
Trying gmin =   5.2587E-08 Note: One successful gmin step
Trying gmin =   5.2566E-08 Warning: Further gmin increment
Trying gmin =   5.2581E-08 Warning: Further gmin increment
Trying gmin =   5.2585E-08 Note: One successful gmin step
Trying gmin =   5.2583E-08 Note: One successful gmin step
Trying gmin =   5.2580E-08 Warning: Further gmin increment
Trying gmin =   5.2583E-08 Note: One successful gmin step
Trying gmin =   5.2582E-08 Warning: Last gmin step failed
Warning: True gmin stepping failed
Note: Starting dynamic gmin stepping
Trying gmin =   1.0000E-03 Note: One successful gmin step
Trying gmin =   1.0000E-04 Note: One successful gmin step
Trying gmin =   1.0000E-05 Warning: Further gmin increment
Trying gmin =   5.6234E-05 Note: One successful gmin step
Trying gmin =   2.3714E-05 Note: One successful gmin step
Trying gmin =   6.4938E-06 Warning: Further gmin increment
Trying gmin =   1.7154E-05 Note: One successful gmin step
Trying gmin =   1.0554E-05 Warning: Further gmin increment
Trying gmin =   1.5193E-05 Note: One successful gmin step
Trying gmin =   1.2663E-05 Note: One successful gmin step
Trying gmin =   9.6358E-06 Note: One successful gmin step
Trying gmin =   6.3960E-06 Note: One successful gmin step
Trying gmin =   3.4589E-06 Note: One successful gmin step
Trying gmin =   1.8706E-06 Note: One successful gmin step
Trying gmin =   7.4391E-07 Warning: Further gmin increment
Trying gmin =   1.4855E-06 Warning: Further gmin increment
Trying gmin =   1.7658E-06 Note: One successful gmin step
Trying gmin =   1.6196E-06 Note: One successful gmin step
Trying gmin =   1.5511E-06 Note: One successful gmin step
Trying gmin =   1.4537E-06 Note: One successful gmin step
Trying gmin =   1.3190E-06 Note: One successful gmin step
Trying gmin =   1.1400E-06 Note: One successful gmin step
Trying gmin =   9.1592E-07 Note: One successful gmin step
Trying gmin =   6.5965E-07 Note: One successful gmin step
Trying gmin =   4.0318E-07 Note: One successful gmin step
Trying gmin =   1.9265E-07 Note: One successful gmin step
Trying gmin =   6.3634E-08 Note: One successful gmin step
Trying gmin =   1.2080E-08 Note: One successful gmin step
Trying gmin =   1.2080E-09 Note: One successful gmin step
Trying gmin =   1.2080E-10 Note: One successful gmin step
Trying gmin =   1.2080E-11 Note: One successful gmin step
Trying gmin =   1.2080E-12 Note: One successful gmin step
Trying gmin =   1.0000E-12 Note: One successful gmin step
Note: Dynamic gmin stepping completed
 Reference value :  2.80000e+00Note: Starting true gmin stepping
Trying gmin =   1.0000E-03 Note: One successful gmin step
Trying gmin =   1.0000E-04 Note: One successful gmin step
Trying gmin =   1.0000E-05 Note: One successful gmin step
Trying gmin =   1.0000E-06 Note: One successful gmin step
Trying gmin =   1.0000E-07 Note: One successful gmin step
Trying gmin =   1.0000E-08 Warning: Further gmin increment
Trying gmin =   5.6234E-08 Note: One successful gmin step
Trying gmin =   2.3714E-08 Note: One successful gmin step
Trying gmin =   1.0000E-08 Note: One successful gmin step
Trying gmin =   2.7384E-09 Note: One successful gmin step
Trying gmin =   7.4989E-10 Note: One successful gmin step
Trying gmin =   1.0746E-10 Note: One successful gmin step
Trying gmin =   1.0746E-11 Note: One successful gmin step
Trying gmin =   1.0746E-12 Note: One successful gmin step
Trying gmin =   1.0000E-12 Note: One successful gmin step
Note: True gmin stepping completed
Note: Starting true gmin stepping
Trying gmin =   1.0000E-03 Note: One successful gmin step
Trying gmin =   1.0000E-04 Note: One successful gmin step
Trying gmin =   1.0000E-05 Note: One successful gmin step
Trying gmin =   1.0000E-06 Note: One successful gmin step
Trying gmin =   1.0000E-07 Note: One successful gmin step
Trying gmin =   1.0000E-08 Warning: Further gmin increment
Trying gmin =   5.6234E-08 Note: One successful gmin step
Trying gmin =   2.3714E-08 Note: One successful gmin step
Trying gmin =   6.4938E-09 Note: One successful gmin step
Trying gmin =   9.3057E-10 Note: One successful gmin step
Trying gmin =   1.3335E-10 Note: One successful gmin step
Trying gmin =   1.3335E-11 Note: One successful gmin step
Trying gmin =   1.3335E-12 Note: One successful gmin step
Trying gmin =   1.0000E-12 Note: One successful gmin step
Note: True gmin stepping completed
 Reference value :  1.32000e+00Note: Starting true gmin stepping
Trying gmin =   1.0000E-03 Note: One successful gmin step
Trying gmin =   1.0000E-04 Note: One successful gmin step
Trying gmin =   1.0000E-05 Note: One successful gmin step
Trying gmin =   1.0000E-06 Note: One successful gmin step
Trying gmin =   1.0000E-07 Note: One successful gmin step
Trying gmin =   1.0000E-08 Note: One successful gmin step
Trying gmin =   1.0000E-09 Warning: Further gmin increment
Trying gmin =   5.6234E-09 Note: One successful gmin step
Trying gmin =   2.3714E-09 Note: One successful gmin step
Trying gmin =   6.4938E-10 Warning: Further gmin increment
Trying gmin =   1.7154E-09 Note: One successful gmin step
Trying gmin =   1.0554E-09 Warning: Further gmin increment
Trying gmin =   1.5193E-09 Note: One successful gmin step
Trying gmin =   1.2663E-09 Note: One successful gmin step
Trying gmin =   9.6358E-10 Note: One successful gmin step
Trying gmin =   6.3960E-10 Note: One successful gmin step
Trying gmin =   3.4589E-10 Note: One successful gmin step
Trying gmin =   1.3756E-10 Note: One successful gmin step
Trying gmin =   3.4499E-11 Note: One successful gmin step
Trying gmin =   4.3331E-12 Note: One successful gmin step
Trying gmin =   1.0000E-12 Note: One successful gmin step
Note: True gmin stepping completed
Note: Starting true gmin stepping
Trying gmin =   1.0000E-03 Note: One successful gmin step
Trying gmin =   1.0000E-04 Note: One successful gmin step
Trying gmin =   1.0000E-05 Note: One successful gmin step
Trying gmin =   1.0000E-06 Note: One successful gmin step
Trying gmin =   1.0000E-07 Note: One successful gmin step
Trying gmin =   1.0000E-08 Note: One successful gmin step
Trying gmin =   3.1623E-09 Note: One successful gmin step
Trying gmin =   5.6234E-10 Warning: Further gmin increment
Trying gmin =   2.0535E-09 Note: One successful gmin step
Trying gmin =   1.0746E-09 Warning: Further gmin increment
Trying gmin =   1.7466E-09 Note: One successful gmin step
Trying gmin =   1.3700E-09 Note: One successful gmin step
Trying gmin =   9.5173E-10 Warning: Further gmin increment
Trying gmin =   1.2507E-09 Note: One successful gmin step
Trying gmin =   1.0910E-09 Note: One successful gmin step
Trying gmin =   9.5173E-10 Note: One successful gmin step
Trying gmin =   7.7540E-10 Note: One successful gmin step
Trying gmin =   5.7022E-10 Note: One successful gmin step
Trying gmin =   3.5960E-10 Note: One successful gmin step
Trying gmin =   1.8009E-10 Note: One successful gmin step
Trying gmin =   6.3822E-11 Note: One successful gmin step
Trying gmin =   1.3465E-11 Note: One successful gmin step
Trying gmin =   1.3465E-12 Note: One successful gmin step
Trying gmin =   1.0000E-12 Note: One successful gmin step
Note: True gmin stepping completed
 Reference value :  1.26000e+00pm                  =  5.310072e+01
Doing analysis at TEMP = 27.000000 and TNOM = 27.000000


No. of Data Rows : 91
psrr100             =  -8.194166e+01
psrr100k            =  -2.552986e+01
Doing analysis at TEMP = 27.000000 and TNOM = 27.000000


No. of Data Rows : 86
temp_coeff = 1.093576e+02
Doing analysis at TEMP = 27.000000 and TNOM = 27.000000


No. of Data Rows : 141
vldo_sup_2          =  1.793373e+00
vldo_sup_2_8        =  1.793342e+00
line_reg = 3.875000e-05
Note: No ".plot", ".print", or ".fourier" lines; no simulations run
vin                 =  1.764125e+00
dropout = 1.250000e-04
