 Reference value :  0.00000e+00
No compatibility mode selected!


Circuit: * ldo netlist 

Doing analysis at TEMP = 27.000000 and TNOM = 27.000000


No. of Data Rows : 1
bg_out = 1.097448e+00
inn = 1.141897e+00
inp = 1.141863e+00
l1#branch = 0.000000e+00
ldo_out = 1.803907e+00
m.xm1.msky130_fd_pr__nfet_g5v0d10v5#body = 1.573582e-11
m.xm1.msky130_fd_pr__nfet_g5v0d10v5#dbody = 3.241358e-11
m.xm1.msky130_fd_pr__nfet_g5v0d10v5#sbody = 1.479389e-11
m.xm2.msky130_fd_pr__pfet_g5v0d10v5#body = 2.300000e+00
m.xm2.msky130_fd_pr__pfet_g5v0d10v5#dbody = 2.300000e+00
m.xm2.msky130_fd_pr__pfet_g5v0d10v5#sbody = 2.300000e+00
m.xm3.msky130_fd_pr__pfet_g5v0d10v5#body = 2.300000e+00
m.xm3.msky130_fd_pr__pfet_g5v0d10v5#dbody = 2.300000e+00
m.xm3.msky130_fd_pr__pfet_g5v0d10v5#sbody = 2.300000e+00
m.xm4.msky130_fd_pr__pfet_g5v0d10v5#body = 2.300000e+00
m.xm4.msky130_fd_pr__pfet_g5v0d10v5#dbody = 2.300000e+00
m.xm4.msky130_fd_pr__pfet_g5v0d10v5#sbody = 2.300000e+00
m.xm5.msky130_fd_pr__pfet_g5v0d10v5#body = 2.300000e+00
m.xm5.msky130_fd_pr__pfet_g5v0d10v5#dbody = 2.300000e+00
m.xm5.msky130_fd_pr__pfet_g5v0d10v5#sbody = 2.300000e+00
m.xm6.msky130_fd_pr__nfet_g5v0d10v5#body = 1.114904e-11
m.xm6.msky130_fd_pr__nfet_g5v0d10v5#dbody = 2.787260e-11
m.xm6.msky130_fd_pr__nfet_g5v0d10v5#sbody = 5.574526e-12
m.xm7.msky130_fd_pr__pfet_g5v0d10v5#body = 2.300000e+00
m.xm7.msky130_fd_pr__pfet_g5v0d10v5#dbody = 2.300000e+00
m.xm7.msky130_fd_pr__pfet_g5v0d10v5#sbody = 2.300000e+00
m.xm8.msky130_fd_pr__pfet_g5v0d10v5#body = 2.300000e+00
m.xm8.msky130_fd_pr__pfet_g5v0d10v5#dbody = 2.300000e+00
m.xm8.msky130_fd_pr__pfet_g5v0d10v5#sbody = 2.300000e+00
m.xm9.msky130_fd_pr__nfet_g5v0d10v5#body = 1.636200e-11
m.xm9.msky130_fd_pr__nfet_g5v0d10v5#dbody = 3.507917e-11
m.xm9.msky130_fd_pr__nfet_g5v0d10v5#sbody = 1.400682e-11
m.xm10.msky130_fd_pr__nfet_g5v0d10v5#body = 1.610939e-11
m.xm10.msky130_fd_pr__nfet_g5v0d10v5#dbody = 3.444764e-11
m.xm10.msky130_fd_pr__nfet_g5v0d10v5#sbody = 1.388052e-11
m.xm11.msky130_fd_pr__pfet_g5v0d10v5#body = 2.300000e+00
m.xm11.msky130_fd_pr__pfet_g5v0d10v5#dbody = 2.300000e+00
m.xm11.msky130_fd_pr__pfet_g5v0d10v5#sbody = 2.300000e+00
m.xm12.msky130_fd_pr__pfet_g5v0d10v5#body = 2.300000e+00
m.xm12.msky130_fd_pr__pfet_g5v0d10v5#dbody = 2.300000e+00
m.xm12.msky130_fd_pr__pfet_g5v0d10v5#sbody = 2.300000e+00
m.xm13.msky130_fd_pr__nfet_g5v0d10v5#body = 2.911553e-12
m.xm13.msky130_fd_pr__nfet_g5v0d10v5#dbody = 7.278872e-12
m.xm13.msky130_fd_pr__nfet_g5v0d10v5#sbody = 1.455787e-12
m.xm14.msky130_fd_pr__pfet_g5v0d10v5#body = 2.300000e+00
m.xm14.msky130_fd_pr__pfet_g5v0d10v5#dbody = 2.300000e+00
m.xm14.msky130_fd_pr__pfet_g5v0d10v5#sbody = 2.300000e+00
m.xm15.msky130_fd_pr__nfet_g5v0d10v5#body = 1.408980e-16
m.xm15.msky130_fd_pr__nfet_g5v0d10v5#dbody = 3.522341e-16
m.xm15.msky130_fd_pr__nfet_g5v0d10v5#sbody = 7.045989e-17
m.xm16.msky130_fd_pr__nfet_g5v0d10v5#body = 4.303234e-11
m.xm16.msky130_fd_pr__nfet_g5v0d10v5#dbody = 7.902480e-11
m.xm16.msky130_fd_pr__nfet_g5v0d10v5#sbody = 5.007222e-11
m.xm17.msky130_fd_pr__pfet_g5v0d10v5#body = 2.300000e+00
m.xm17.msky130_fd_pr__pfet_g5v0d10v5#dbody = 2.300000e+00
m.xm17.msky130_fd_pr__pfet_g5v0d10v5#sbody = 2.300000e+00
m.xm18.msky130_fd_pr__nfet_g5v0d10v5#body = 1.746483e-11
m.xm18.msky130_fd_pr__nfet_g5v0d10v5#dbody = 4.366005e-11
m.xm18.msky130_fd_pr__nfet_g5v0d10v5#sbody = 8.732430e-12
m.xm19.msky130_fd_pr__nfet_g5v0d10v5#body = 1.578491e-11
m.xm19.msky130_fd_pr__nfet_g5v0d10v5#dbody = 3.253630e-11
m.xm19.msky130_fd_pr__nfet_g5v0d10v5#sbody = 1.481844e-11
m.xm20.msky130_fd_pr__nfet_g5v0d10v5#body = 1.106483e-11
m.xm20.msky130_fd_pr__nfet_g5v0d10v5#dbody = 2.766206e-11
m.xm20.msky130_fd_pr__nfet_g5v0d10v5#sbody = 5.532428e-12
m.xm22.msky130_fd_pr__nfet_g5v0d10v5#body = 3.465704e-12
m.xm22.msky130_fd_pr__nfet_g5v0d10v5#dbody = 8.664254e-12
m.xm22.msky130_fd_pr__nfet_g5v0d10v5#sbody = 1.732857e-12
m.xm24.msky130_fd_pr__pfet_g5v0d10v5#body = 2.300000e+00
m.xm24.msky130_fd_pr__pfet_g5v0d10v5#dbody = 2.300000e+00
m.xm24.msky130_fd_pr__pfet_g5v0d10v5#sbody = 2.300000e+00
m.xm26.msky130_fd_pr__pfet_g5v0d10v5#body = 2.300000e+00
m.xm26.msky130_fd_pr__pfet_g5v0d10v5#dbody = 2.300000e+00
m.xm26.msky130_fd_pr__pfet_g5v0d10v5#sbody = 2.300000e+00
mir = 9.814814e-01
net1 = 7.262652e-01
net2 = 1.084192e-05
net3 = 7.859650e-01
net4 = 2.766940e-01
net5 = 9.854085e-01
net6 = 8.913609e-01
net7 = 7.859300e-01
net8 = 1.055481e+00
net9 = 1.075690e+00
net10 = 2.327962e-01
net11 = 1.396978e+00
net12 = 1.396978e+00
net13 = 0.000000e+00
out = 1.396978e+00
pos = 1.097653e+00
q.xq2.qsky130_fd_pr__pnp_05v5_w0p68l0p68#collcx = 2.181588e-03
q.xq3.qsky130_fd_pr__pnp_05v5_w0p68l0p68#collcx = 2.748263e-04
q.xq4.qsky130_fd_pr__pnp_05v5_w0p68l0p68#collcx = 2.748263e-04
q.xq8.qsky130_fd_pr__pnp_05v5_w0p68l0p68#collcx = 2.748263e-04
q.xq10.qsky130_fd_pr__pnp_05v5_w0p68l0p68#collcx = 2.748263e-04
q.xq12.qsky130_fd_pr__pnp_05v5_w0p68l0p68#collcx = 2.748263e-04
q.xq14.qsky130_fd_pr__pnp_05v5_w0p68l0p68#collcx = 2.748263e-04
q.xq16.qsky130_fd_pr__pnp_05v5_w0p68l0p68#collcx = 2.748263e-04
q.xq18.qsky130_fd_pr__pnp_05v5_w0p68l0p68#collcx = 2.748263e-04
vb = 8.850582e-01
vdd = 2.300000e+00
vs#branch = -1.78247e-04
vt#branch = 0.000000e+00
xc1.a = 0.000000e+00
xc1.b1 = 0.000000e+00
xc3.a = 1.396978e+00
xc3.b1 = 1.396978e+00
xr1.xsky130_fd_pr__res_xhigh_po_0p69.ra = 7.914010e-01
xr2.xsky130_fd_pr__res_xhigh_po_0p69.ra = 7.914359e-01
xr3.xsky130_fd_pr__res_xhigh_po_0p69.ra = 3.785525e-03
xr4.xsky130_fd_pr__res_xhigh_po_0p69.ra = 7.280543e-01
xr5.xsky130_fd_pr__res_xhigh_po_0p69.ra = 3.785346e-03
xr6.xsky130_fd_pr__res_xhigh_po_0p69.ra = 5.806988e-03
xr7.xsky130_fd_pr__res_xhigh_po_0p69.ra = 1.396978e+00
xr8.xsky130_fd_pr__res_xhigh_po_0p69.ra = 1.106476e+00
xr9.xsky130_fd_pr__res_xhigh_po_0p69.ra = 9.108817e-03
Doing analysis at TEMP = 27.000000 and TNOM = 27.000000


No. of Data Rows : 91
Note: Starting true gmin stepping
Trying gmin =   1.0000E-03 Note: One successful gmin step
Trying gmin =   1.0000E-04 Note: One successful gmin step
Trying gmin =   1.0000E-05 Note: One successful gmin step
Trying gmin =   1.0000E-06 Note: One successful gmin step
Trying gmin =   1.0000E-07 Note: One successful gmin step
Trying gmin =   1.0000E-08 Warning: Further gmin increment
Trying gmin =   5.6234E-08 Note: One successful gmin step
Trying gmin =   3.1623E-08 Warning: Further gmin increment
Trying gmin =   4.8697E-08 Note: One successful gmin step
Trying gmin =   3.9242E-08 Note: One successful gmin step
Trying gmin =   2.8387E-08 Note: One successful gmin step
Trying gmin =   1.7466E-08 Note: One successful gmin step
Trying gmin =   8.4291E-09 Note: One successful gmin step
Trying gmin =   2.8260E-09 Note: One successful gmin step
Trying gmin =   5.4860E-10 Note: One successful gmin step
Trying gmin =   5.4860E-11 Note: One successful gmin step
Trying gmin =   5.4860E-12 Note: One successful gmin step
Trying gmin =   1.0000E-12 Note: One successful gmin step
Note: True gmin stepping completed
 Reference value :  1.50000e+00Note: Starting true gmin stepping
Trying gmin =   1.0000E-03 Note: One successful gmin step
Trying gmin =   1.0000E-04 Note: One successful gmin step
Trying gmin =   1.0000E-05 Note: One successful gmin step
Trying gmin =   1.0000E-06 Note: One successful gmin step
Trying gmin =   1.0000E-07 Note: One successful gmin step
Trying gmin =   1.0000E-08 Warning: Further gmin increment
Trying gmin =   5.6234E-08 Note: One successful gmin step
Trying gmin =   3.1623E-08 Warning: Further gmin increment
Trying gmin =   4.8697E-08 Note: One successful gmin step
Trying gmin =   3.9242E-08 Note: One successful gmin step
Trying gmin =   2.8387E-08 Note: One successful gmin step
Trying gmin =   1.7466E-08 Note: One successful gmin step
Trying gmin =   8.4291E-09 Note: One successful gmin step
Trying gmin =   2.8260E-09 Note: One successful gmin step
Trying gmin =   5.4860E-10 Note: One successful gmin step
Trying gmin =   5.4860E-11 Note: One successful gmin step
Trying gmin =   5.4860E-12 Note: One successful gmin step
Trying gmin =   1.0000E-12 Note: One successful gmin step
Note: True gmin stepping completed
pm                  =  6.232693e+01
Doing analysis at TEMP = 27.000000 and TNOM = 27.000000


No. of Data Rows : 91
psrr100             =  -7.426741e+01
psrr100k            =  -2.714118e+01
Doing analysis at TEMP = 27.000000 and TNOM = 27.000000


No. of Data Rows : 86
temp_coeff = 4.455168e+01
Doing analysis at TEMP = 27.000000 and TNOM = 27.000000


No. of Data Rows : 141
vldo_sup_2          =  1.803862e+00
vldo_sup_2_8        =  1.803813e+00
line_reg = 6.125000e-05
Note: No ".plot", ".print", or ".fourier" lines; no simulations run
vin                 =  1.764160e+00
dropout = 1.600000e-04
