 Reference value :  0.00000e+00
No compatibility mode selected!


Circuit: * ldo netlist 

Doing analysis at TEMP = 85.000000 and TNOM = 27.000000


No. of Data Rows : 1
bg_out = 1.203668e+00
inn = 1.149974e+00
inp = 1.149930e+00
l1#branch = 0.000000e+00
ldo_out = 1.811459e+00
m.xm1.msky130_fd_pr__nfet_g5v0d10v5#body = 3.151056e-11
m.xm1.msky130_fd_pr__nfet_g5v0d10v5#dbody = 6.235341e-11
m.xm1.msky130_fd_pr__nfet_g5v0d10v5#sbody = 3.217821e-11
m.xm2.msky130_fd_pr__pfet_g5v0d10v5#body = 2.500000e+00
m.xm2.msky130_fd_pr__pfet_g5v0d10v5#dbody = 2.500000e+00
m.xm2.msky130_fd_pr__pfet_g5v0d10v5#sbody = 2.500000e+00
m.xm3.msky130_fd_pr__pfet_g5v0d10v5#body = 2.500000e+00
m.xm3.msky130_fd_pr__pfet_g5v0d10v5#dbody = 2.500000e+00
m.xm3.msky130_fd_pr__pfet_g5v0d10v5#sbody = 2.500000e+00
m.xm4.msky130_fd_pr__pfet_g5v0d10v5#body = 2.500000e+00
m.xm4.msky130_fd_pr__pfet_g5v0d10v5#dbody = 2.500000e+00
m.xm4.msky130_fd_pr__pfet_g5v0d10v5#sbody = 2.500000e+00
m.xm5.msky130_fd_pr__pfet_g5v0d10v5#body = 2.500000e+00
m.xm5.msky130_fd_pr__pfet_g5v0d10v5#dbody = 2.500000e+00
m.xm5.msky130_fd_pr__pfet_g5v0d10v5#sbody = 2.500000e+00
m.xm6.msky130_fd_pr__nfet_g5v0d10v5#body = 2.056343e-11
m.xm6.msky130_fd_pr__nfet_g5v0d10v5#dbody = 5.140847e-11
m.xm6.msky130_fd_pr__nfet_g5v0d10v5#sbody = 1.028183e-11
m.xm7.msky130_fd_pr__pfet_g5v0d10v5#body = 2.500000e+00
m.xm7.msky130_fd_pr__pfet_g5v0d10v5#dbody = 2.500000e+00
m.xm7.msky130_fd_pr__pfet_g5v0d10v5#sbody = 2.500000e+00
m.xm8.msky130_fd_pr__pfet_g5v0d10v5#body = 2.500000e+00
m.xm8.msky130_fd_pr__pfet_g5v0d10v5#dbody = 2.500000e+00
m.xm8.msky130_fd_pr__pfet_g5v0d10v5#sbody = 2.500000e+00
m.xm9.msky130_fd_pr__nfet_g5v0d10v5#body = 2.970874e-11
m.xm9.msky130_fd_pr__nfet_g5v0d10v5#dbody = 6.066118e-11
m.xm9.msky130_fd_pr__nfet_g5v0d10v5#sbody = 2.846477e-11
m.xm10.msky130_fd_pr__nfet_g5v0d10v5#body = 2.953447e-11
m.xm10.msky130_fd_pr__nfet_g5v0d10v5#dbody = 6.022558e-11
m.xm10.msky130_fd_pr__nfet_g5v0d10v5#sbody = 2.837763e-11
m.xm11.msky130_fd_pr__pfet_g5v0d10v5#body = 2.500000e+00
m.xm11.msky130_fd_pr__pfet_g5v0d10v5#dbody = 2.500000e+00
m.xm11.msky130_fd_pr__pfet_g5v0d10v5#sbody = 2.500000e+00
m.xm12.msky130_fd_pr__pfet_g5v0d10v5#body = 2.500000e+00
m.xm12.msky130_fd_pr__pfet_g5v0d10v5#dbody = 2.500000e+00
m.xm12.msky130_fd_pr__pfet_g5v0d10v5#sbody = 2.500000e+00
m.xm13.msky130_fd_pr__nfet_g5v0d10v5#body = 5.158314e-12
m.xm13.msky130_fd_pr__nfet_g5v0d10v5#dbody = 1.289571e-11
m.xm13.msky130_fd_pr__nfet_g5v0d10v5#sbody = 2.579226e-12
m.xm14.msky130_fd_pr__pfet_g5v0d10v5#body = 2.500000e+00
m.xm14.msky130_fd_pr__pfet_g5v0d10v5#dbody = 2.500000e+00
m.xm14.msky130_fd_pr__pfet_g5v0d10v5#sbody = 2.500000e+00
m.xm15.msky130_fd_pr__nfet_g5v0d10v5#body = 8.030794e-14
m.xm15.msky130_fd_pr__nfet_g5v0d10v5#dbody = 2.007665e-13
m.xm15.msky130_fd_pr__nfet_g5v0d10v5#sbody = 4.015728e-14
m.xm16.msky130_fd_pr__nfet_g5v0d10v5#body = 5.625324e-11
m.xm16.msky130_fd_pr__nfet_g5v0d10v5#dbody = 1.012552e-10
m.xm16.msky130_fd_pr__nfet_g5v0d10v5#sbody = 6.750454e-11
m.xm17.msky130_fd_pr__pfet_g5v0d10v5#body = 2.500000e+00
m.xm17.msky130_fd_pr__pfet_g5v0d10v5#dbody = 2.500000e+00
m.xm17.msky130_fd_pr__pfet_g5v0d10v5#sbody = 2.500000e+00
m.xm18.msky130_fd_pr__nfet_g5v0d10v5#body = 1.722089e-11
m.xm18.msky130_fd_pr__nfet_g5v0d10v5#dbody = 4.305214e-11
m.xm18.msky130_fd_pr__nfet_g5v0d10v5#sbody = 8.610525e-12
m.xm19.msky130_fd_pr__nfet_g5v0d10v5#body = 3.158230e-11
m.xm19.msky130_fd_pr__nfet_g5v0d10v5#dbody = 6.253274e-11
m.xm19.msky130_fd_pr__nfet_g5v0d10v5#sbody = 3.221408e-11
m.xm20.msky130_fd_pr__nfet_g5v0d10v5#body = 1.462704e-11
m.xm20.msky130_fd_pr__nfet_g5v0d10v5#dbody = 3.656752e-11
m.xm20.msky130_fd_pr__nfet_g5v0d10v5#sbody = 7.313600e-12
m.xm22.msky130_fd_pr__nfet_g5v0d10v5#body = 1.150401e-11
m.xm22.msky130_fd_pr__nfet_g5v0d10v5#dbody = 2.875991e-11
m.xm22.msky130_fd_pr__nfet_g5v0d10v5#sbody = 5.752116e-12
m.xm24.msky130_fd_pr__pfet_g5v0d10v5#body = 2.500000e+00
m.xm24.msky130_fd_pr__pfet_g5v0d10v5#dbody = 2.500000e+00
m.xm24.msky130_fd_pr__pfet_g5v0d10v5#sbody = 2.500000e+00
m.xm26.msky130_fd_pr__pfet_g5v0d10v5#body = 2.500000e+00
m.xm26.msky130_fd_pr__pfet_g5v0d10v5#dbody = 2.500000e+00
m.xm26.msky130_fd_pr__pfet_g5v0d10v5#sbody = 2.500000e+00
mir = 1.438783e+00
net1 = 6.313361e-01
net2 = 1.550099e-04
net3 = 7.051909e-01
net4 = 2.321692e-01
net5 = 1.444521e+00
net6 = 9.562840e-01
net7 = 7.051457e-01
net8 = 1.525014e+00
net9 = 1.538952e+00
net10 = 2.512486e-01
net11 = 1.216170e+00
net12 = 1.216170e+00
net13 = 0.000000e+00
out = 1.216170e+00
pos = 1.203815e+00
q.xq2.qsky130_fd_pr__pnp_05v5_w0p68l0p68#collcx = 3.101937e-03
q.xq3.qsky130_fd_pr__pnp_05v5_w0p68l0p68#collcx = 3.916862e-04
q.xq4.qsky130_fd_pr__pnp_05v5_w0p68l0p68#collcx = 3.916862e-04
q.xq8.qsky130_fd_pr__pnp_05v5_w0p68l0p68#collcx = 3.916862e-04
q.xq10.qsky130_fd_pr__pnp_05v5_w0p68l0p68#collcx = 3.916862e-04
q.xq12.qsky130_fd_pr__pnp_05v5_w0p68l0p68#collcx = 3.916862e-04
q.xq14.qsky130_fd_pr__pnp_05v5_w0p68l0p68#collcx = 3.916862e-04
q.xq16.qsky130_fd_pr__pnp_05v5_w0p68l0p68#collcx = 3.916862e-04
q.xq18.qsky130_fd_pr__pnp_05v5_w0p68l0p68#collcx = 3.916862e-04
vb = 1.008662e+00
vdd = 2.500000e+00
vs#branch = -1.00780e-01
vt#branch = 0.000000e+00
xc1.a = 0.000000e+00
xc1.b1 = 0.000000e+00
xc3.a = 1.216170e+00
xc3.b1 = 1.216170e+00
xr1.xsky130_fd_pr__res_xhigh_po_0p69.ra = 7.083213e-01
xr2.xsky130_fd_pr__res_xhigh_po_0p69.ra = 7.083666e-01
xr3.xsky130_fd_pr__res_xhigh_po_0p69.ra = 1.893358e-03
xr4.xsky130_fd_pr__res_xhigh_po_0p69.ra = 6.326359e-01
xr5.xsky130_fd_pr__res_xhigh_po_0p69.ra = 1.893229e-03
xr6.xsky130_fd_pr__res_xhigh_po_0p69.ra = 3.364617e-03
xr7.xsky130_fd_pr__res_xhigh_po_0p69.ra = 1.216170e+00
xr8.xsky130_fd_pr__res_xhigh_po_0p69.ra = 1.209406e+00
xr9.xsky130_fd_pr__res_xhigh_po_0p69.ra = 5.863961e-03
Doing analysis at TEMP = 85.000000 and TNOM = 27.000000


No. of Data Rows : 91
Note: Starting true gmin stepping
Trying gmin =   1.0000E-03 Note: One successful gmin step
Trying gmin =   1.0000E-04 Note: One successful gmin step
Trying gmin =   1.0000E-05 Note: One successful gmin step
Trying gmin =   1.0000E-06 Note: One successful gmin step
Trying gmin =   1.0000E-07 Warning: Further gmin increment
Trying gmin =   5.6234E-07 Note: One successful gmin step
Trying gmin =   2.3714E-07 Note: One successful gmin step
Trying gmin =   6.4938E-08 Warning: Further gmin increment
Trying gmin =   1.7154E-07 Note: One successful gmin step
Trying gmin =   1.0554E-07 Warning: Further gmin increment
Trying gmin =   1.5193E-07 Warning: Further gmin increment
Trying gmin =   1.6641E-07 Note: One successful gmin step
Trying gmin =   1.5901E-07 Warning: Further gmin increment
Trying gmin =   1.6453E-07 Note: One successful gmin step
Trying gmin =   1.6175E-07 Warning: Further gmin increment
Trying gmin =   1.6383E-07 Note: One successful gmin step
Trying gmin =   1.6278E-07 Warning: Further gmin increment
Trying gmin =   1.6357E-07 Note: One successful gmin step
Trying gmin =   1.6318E-07 Warning: Further gmin increment
Trying gmin =   1.6347E-07 Note: One successful gmin step
Trying gmin =   1.6332E-07 Warning: Further gmin increment
Trying gmin =   1.6343E-07 Note: One successful gmin step
Trying gmin =   1.6338E-07 Note: One successful gmin step
Trying gmin =   1.6330E-07 Warning: Further gmin increment
Trying gmin =   1.6336E-07 Warning: Further gmin increment
Trying gmin =   1.6337E-07 Note: One successful gmin step
Trying gmin =   1.6336E-07 Note: One successful gmin step
Trying gmin =   1.6335E-07 Warning: Further gmin increment
Trying gmin =   1.6336E-07 Note: One successful gmin step
Trying gmin =   1.6336E-07 Warning: Last gmin step failed
Warning: True gmin stepping failed
Note: Starting dynamic gmin stepping
Trying gmin =   1.0000E-03 Note: One successful gmin step
Trying gmin =   1.0000E-04 Note: One successful gmin step
Trying gmin =   1.0000E-05 Note: One successful gmin step
Trying gmin =   1.0000E-06 Note: One successful gmin step
Trying gmin =   1.0000E-07 Note: One successful gmin step
Trying gmin =   1.0000E-08 Note: One successful gmin step
Trying gmin =   1.0000E-09 Note: One successful gmin step
Trying gmin =   1.0000E-10 Note: One successful gmin step
Trying gmin =   1.0000E-11 Note: One successful gmin step
Trying gmin =   1.0000E-12 Note: One successful gmin step
Trying gmin =   1.0000E-12 Note: One successful gmin step
Note: Dynamic gmin stepping completed
 Reference value :  2.80000e+00Note: Starting true gmin stepping
Trying gmin =   1.0000E-03 Note: One successful gmin step
Trying gmin =   1.0000E-04 Note: One successful gmin step
Trying gmin =   1.0000E-05 Note: One successful gmin step
Trying gmin =   1.0000E-06 Note: One successful gmin step
Trying gmin =   1.0000E-07 Note: One successful gmin step
Trying gmin =   1.0000E-08 Note: One successful gmin step
Trying gmin =   3.1623E-09 Note: One successful gmin step
Trying gmin =   5.6234E-10 Warning: Further gmin increment
Trying gmin =   2.0535E-09 Note: One successful gmin step
Trying gmin =   1.0746E-09 Note: One successful gmin step
Trying gmin =   4.0679E-10 Note: One successful gmin step
Trying gmin =   9.4746E-11 Warning: Further gmin increment
Trying gmin =   2.8260E-10 Note: One successful gmin step
Trying gmin =   1.6363E-10 Note: One successful gmin step
Trying gmin =   7.2096E-11 Note: One successful gmin step
Trying gmin =   2.1085E-11 Note: One successful gmin step
Trying gmin =   3.3348E-12 Note: One successful gmin step
Trying gmin =   1.0000E-12 Note: One successful gmin step
Note: True gmin stepping completed
Note: Starting true gmin stepping
Trying gmin =   1.0000E-03 Note: One successful gmin step
Trying gmin =   1.0000E-04 Note: One successful gmin step
Trying gmin =   1.0000E-05 Note: One successful gmin step
Trying gmin =   1.0000E-06 Note: One successful gmin step
Trying gmin =   1.0000E-07 Note: One successful gmin step
Trying gmin =   1.0000E-08 Note: One successful gmin step
Trying gmin =   1.0000E-09 Note: One successful gmin step
Trying gmin =   1.0000E-10 Warning: Further gmin increment
Trying gmin =   5.6234E-10 Note: One successful gmin step
Trying gmin =   2.3714E-10 Note: One successful gmin step
Trying gmin =   6.4938E-11 Warning: Further gmin increment
Trying gmin =   1.7154E-10 Note: One successful gmin step
Trying gmin =   1.2409E-10 Note: One successful gmin step
Trying gmin =   7.6351E-11 Note: One successful gmin step
Trying gmin =   3.6847E-11 Note: One successful gmin step
Trying gmin =   1.2354E-11 Note: One successful gmin step
Trying gmin =   2.3982E-12 Note: One successful gmin step
Trying gmin =   1.0000E-12 Note: One successful gmin step
Note: True gmin stepping completed
 Reference value :  1.04000e+00pm                  =  8.676886e+01
Doing analysis at TEMP = 85.000000 and TNOM = 27.000000


No. of Data Rows : 91
psrr100             =  -5.297681e+01
psrr100k            =  -2.589689e+01
Doing analysis at TEMP = 85.000000 and TNOM = 27.000000


No. of Data Rows : 86
temp_coeff = 1.731490e+02
Doing analysis at TEMP = 85.000000 and TNOM = 27.000000


No. of Data Rows : 141
vldo_sup_2          =  1.809425e+00
vldo_sup_2_8        =  1.812011e+00
line_reg = 3.232500e-03
Note: No ".plot", ".print", or ".fourier" lines; no simulations run
vin                 =  1.916112e+00
dropout = 1.521120e-01
