 Reference value :  0.00000e+00
No compatibility mode selected!


Circuit: * ldo netlist 

Doing analysis at TEMP = 27.000000 and TNOM = 27.000000


No. of Data Rows : 1
bg_out = 1.097423e+00
inn = 1.141786e+00
inp = 1.141721e+00
l1#branch = 2.775558e-17
ldo_out = 1.803930e+00
m.xm1.msky130_fd_pr__nfet_g5v0d10v5#body = 1.382016e-11
m.xm1.msky130_fd_pr__nfet_g5v0d10v5#dbody = 2.887874e-11
m.xm1.msky130_fd_pr__nfet_g5v0d10v5#sbody = 1.258175e-11
m.xm2.msky130_fd_pr__pfet_g5v0d10v5#body = 2.100000e+00
m.xm2.msky130_fd_pr__pfet_g5v0d10v5#dbody = 2.100000e+00
m.xm2.msky130_fd_pr__pfet_g5v0d10v5#sbody = 2.100000e+00
m.xm3.msky130_fd_pr__pfet_g5v0d10v5#body = 2.100000e+00
m.xm3.msky130_fd_pr__pfet_g5v0d10v5#dbody = 2.100000e+00
m.xm3.msky130_fd_pr__pfet_g5v0d10v5#sbody = 2.100000e+00
m.xm4.msky130_fd_pr__pfet_g5v0d10v5#body = 2.100000e+00
m.xm4.msky130_fd_pr__pfet_g5v0d10v5#dbody = 2.100000e+00
m.xm4.msky130_fd_pr__pfet_g5v0d10v5#sbody = 2.100000e+00
m.xm5.msky130_fd_pr__pfet_g5v0d10v5#body = 2.100000e+00
m.xm5.msky130_fd_pr__pfet_g5v0d10v5#dbody = 2.100000e+00
m.xm5.msky130_fd_pr__pfet_g5v0d10v5#sbody = 2.100000e+00
m.xm6.msky130_fd_pr__nfet_g5v0d10v5#body = 1.179307e-11
m.xm6.msky130_fd_pr__nfet_g5v0d10v5#dbody = 2.948267e-11
m.xm6.msky130_fd_pr__nfet_g5v0d10v5#sbody = 5.896539e-12
m.xm7.msky130_fd_pr__pfet_g5v0d10v5#body = 2.100000e+00
m.xm7.msky130_fd_pr__pfet_g5v0d10v5#dbody = 2.100000e+00
m.xm7.msky130_fd_pr__pfet_g5v0d10v5#sbody = 2.100000e+00
m.xm8.msky130_fd_pr__pfet_g5v0d10v5#body = 2.100000e+00
m.xm8.msky130_fd_pr__pfet_g5v0d10v5#dbody = 2.100000e+00
m.xm8.msky130_fd_pr__pfet_g5v0d10v5#sbody = 2.100000e+00
m.xm9.msky130_fd_pr__nfet_g5v0d10v5#body = 1.446594e-11
m.xm9.msky130_fd_pr__nfet_g5v0d10v5#dbody = 3.160423e-11
m.xm9.msky130_fd_pr__nfet_g5v0d10v5#sbody = 1.179360e-11
m.xm10.msky130_fd_pr__nfet_g5v0d10v5#body = 1.418452e-11
m.xm10.msky130_fd_pr__nfet_g5v0d10v5#dbody = 3.090068e-11
m.xm10.msky130_fd_pr__nfet_g5v0d10v5#sbody = 1.165289e-11
m.xm11.msky130_fd_pr__pfet_g5v0d10v5#body = 2.100000e+00
m.xm11.msky130_fd_pr__pfet_g5v0d10v5#dbody = 2.100000e+00
m.xm11.msky130_fd_pr__pfet_g5v0d10v5#sbody = 2.100000e+00
m.xm12.msky130_fd_pr__pfet_g5v0d10v5#body = 2.100000e+00
m.xm12.msky130_fd_pr__pfet_g5v0d10v5#dbody = 2.100000e+00
m.xm12.msky130_fd_pr__pfet_g5v0d10v5#sbody = 2.100000e+00
m.xm13.msky130_fd_pr__nfet_g5v0d10v5#body = 2.278959e-12
m.xm13.msky130_fd_pr__nfet_g5v0d10v5#dbody = 5.697387e-12
m.xm13.msky130_fd_pr__nfet_g5v0d10v5#sbody = 1.139490e-12
m.xm14.msky130_fd_pr__pfet_g5v0d10v5#body = 2.100000e+00
m.xm14.msky130_fd_pr__pfet_g5v0d10v5#dbody = 2.100000e+00
m.xm14.msky130_fd_pr__pfet_g5v0d10v5#sbody = 2.100000e+00
m.xm15.msky130_fd_pr__nfet_g5v0d10v5#body = 7.645067e-17
m.xm15.msky130_fd_pr__nfet_g5v0d10v5#dbody = 1.911229e-16
m.xm15.msky130_fd_pr__nfet_g5v0d10v5#sbody = 3.822907e-17
m.xm16.msky130_fd_pr__nfet_g5v0d10v5#body = 4.053102e-11
m.xm16.msky130_fd_pr__nfet_g5v0d10v5#dbody = 7.277420e-11
m.xm16.msky130_fd_pr__nfet_g5v0d10v5#sbody = 4.881885e-11
m.xm17.msky130_fd_pr__pfet_g5v0d10v5#body = 2.100000e+00
m.xm17.msky130_fd_pr__pfet_g5v0d10v5#dbody = 2.100000e+00
m.xm17.msky130_fd_pr__pfet_g5v0d10v5#sbody = 2.100000e+00
m.xm18.msky130_fd_pr__nfet_g5v0d10v5#body = 1.627707e-11
m.xm18.msky130_fd_pr__nfet_g5v0d10v5#dbody = 4.069246e-11
m.xm18.msky130_fd_pr__nfet_g5v0d10v5#sbody = 8.138546e-12
m.xm19.msky130_fd_pr__nfet_g5v0d10v5#body = 1.390699e-11
m.xm19.msky130_fd_pr__nfet_g5v0d10v5#dbody = 2.909579e-11
m.xm19.msky130_fd_pr__nfet_g5v0d10v5#sbody = 1.262516e-11
m.xm20.msky130_fd_pr__nfet_g5v0d10v5#body = 1.206639e-11
m.xm20.msky130_fd_pr__nfet_g5v0d10v5#dbody = 3.016597e-11
m.xm20.msky130_fd_pr__nfet_g5v0d10v5#sbody = 6.033209e-12
m.xm22.msky130_fd_pr__nfet_g5v0d10v5#body = 2.838548e-12
m.xm22.msky130_fd_pr__nfet_g5v0d10v5#dbody = 7.096365e-12
m.xm22.msky130_fd_pr__nfet_g5v0d10v5#sbody = 1.419279e-12
m.xm24.msky130_fd_pr__pfet_g5v0d10v5#body = 2.100000e+00
m.xm24.msky130_fd_pr__pfet_g5v0d10v5#dbody = 2.100000e+00
m.xm24.msky130_fd_pr__pfet_g5v0d10v5#sbody = 2.100000e+00
m.xm26.msky130_fd_pr__pfet_g5v0d10v5#body = 2.100000e+00
m.xm26.msky130_fd_pr__pfet_g5v0d10v5#dbody = 2.100000e+00
m.xm26.msky130_fd_pr__pfet_g5v0d10v5#sbody = 2.100000e+00
mir = 8.783987e-01
net1 = 7.262484e-01
net2 = 5.882268e-06
net3 = 7.859432e-01
net4 = 2.265192e-01
net5 = 8.853444e-01
net6 = 9.428807e-01
net7 = 7.858765e-01
net8 = 9.520976e-01
net9 = 9.746112e-01
net10 = 1.821864e-01
net11 = 1.302027e+00
net12 = 1.302027e+00
net13 = 0.000000e+00
out = 1.302027e+00
pos = 1.097667e+00
q.xq2.qsky130_fd_pr__pnp_05v5_w0p68l0p68#collcx = 2.180073e-03
q.xq3.qsky130_fd_pr__pnp_05v5_w0p68l0p68#collcx = 2.746575e-04
q.xq4.qsky130_fd_pr__pnp_05v5_w0p68l0p68#collcx = 2.746575e-04
q.xq8.qsky130_fd_pr__pnp_05v5_w0p68l0p68#collcx = 2.746575e-04
q.xq10.qsky130_fd_pr__pnp_05v5_w0p68l0p68#collcx = 2.746575e-04
q.xq12.qsky130_fd_pr__pnp_05v5_w0p68l0p68#collcx = 2.746575e-04
q.xq14.qsky130_fd_pr__pnp_05v5_w0p68l0p68#collcx = 2.746575e-04
q.xq16.qsky130_fd_pr__pnp_05v5_w0p68l0p68#collcx = 2.746575e-04
q.xq18.qsky130_fd_pr__pnp_05v5_w0p68l0p68#collcx = 2.746575e-04
vb = 9.651807e-01
vdd = 2.100000e+00
vs#branch = -1.76912e-04
vt#branch = 0.000000e+00
xc1.a = 0.000000e+00
xc1.b1 = 0.000000e+00
xc3.a = 1.302027e+00
xc3.b1 = 1.302027e+00
xr1.xsky130_fd_pr__res_xhigh_po_0p69.ra = 7.913461e-01
xr2.xsky130_fd_pr__res_xhigh_po_0p69.ra = 7.914127e-01
xr3.xsky130_fd_pr__res_xhigh_po_0p69.ra = 3.785413e-03
xr4.xsky130_fd_pr__res_xhigh_po_0p69.ra = 7.280363e-01
xr5.xsky130_fd_pr__res_xhigh_po_0p69.ra = 3.785071e-03
xr6.xsky130_fd_pr__res_xhigh_po_0p69.ra = 5.806845e-03
xr7.xsky130_fd_pr__res_xhigh_po_0p69.ra = 1.302027e+00
xr8.xsky130_fd_pr__res_xhigh_po_0p69.ra = 1.106491e+00
xr9.xsky130_fd_pr__res_xhigh_po_0p69.ra = 9.108945e-03
Doing analysis at TEMP = 27.000000 and TNOM = 27.000000


No. of Data Rows : 91
Note: Starting true gmin stepping
Trying gmin =   1.0000E-03 Note: One successful gmin step
Trying gmin =   1.0000E-04 Note: One successful gmin step
Trying gmin =   1.0000E-05 Note: One successful gmin step
Trying gmin =   1.0000E-06 Note: One successful gmin step
Trying gmin =   1.0000E-07 Note: One successful gmin step
Trying gmin =   1.0000E-08 Warning: Further gmin increment
Trying gmin =   5.6234E-08 Warning: Further gmin increment
Trying gmin =   8.6596E-08 Warning: Further gmin increment
Trying gmin =   9.6466E-08 Warning: Further gmin increment
Trying gmin =   9.9105E-08 Note: One successful gmin step
Trying gmin =   9.7776E-08 Note: One successful gmin step
Trying gmin =   9.5818E-08 Warning: Further gmin increment
Trying gmin =   9.7283E-08 Warning: Further gmin increment
Trying gmin =   9.7653E-08 Warning: Further gmin increment
Trying gmin =   9.7746E-08 Note: One successful gmin step
Trying gmin =   9.7699E-08 Warning: Further gmin increment
Trying gmin =   9.7734E-08 Warning: Further gmin increment
Trying gmin =   9.7743E-08 Warning: Last gmin step failed
Warning: True gmin stepping failed
Note: Starting dynamic gmin stepping
Trying gmin =   1.0000E-03 Note: One successful gmin step
Trying gmin =   1.0000E-04 Note: One successful gmin step
Trying gmin =   1.0000E-05 Note: One successful gmin step
Trying gmin =   1.0000E-06 Warning: Further gmin increment
Trying gmin =   5.6234E-06 Note: One successful gmin step
Trying gmin =   4.2170E-06 Note: One successful gmin step
Trying gmin =   2.7384E-06 Note: One successful gmin step
Trying gmin =   1.4330E-06 Warning: Further gmin increment
Trying gmin =   2.3291E-06 Note: One successful gmin step
Trying gmin =   1.8269E-06 Note: One successful gmin step
Trying gmin =   1.2692E-06 Warning: Further gmin increment
Trying gmin =   1.6679E-06 Note: One successful gmin step
Trying gmin =   1.4549E-06 Warning: Further gmin increment
Trying gmin =   1.6119E-06 Warning: Further gmin increment
Trying gmin =   1.6537E-06 Note: One successful gmin step
Trying gmin =   1.6327E-06 Note: One successful gmin step
Trying gmin =   1.6016E-06 Warning: Further gmin increment
Trying gmin =   1.6248E-06 Note: One successful gmin step
Trying gmin =   1.6210E-06 Note: One successful gmin step
Trying gmin =   1.6151E-06 Note: One successful gmin step
Trying gmin =   1.6064E-06 Note: One successful gmin step
Trying gmin =   1.5935E-06 Note: One successful gmin step
Trying gmin =   1.5742E-06 Note: One successful gmin step
Trying gmin =   1.5458E-06 Note: One successful gmin step
Trying gmin =   1.5041E-06 Note: One successful gmin step
Trying gmin =   1.4436E-06 Note: One successful gmin step
Trying gmin =   1.3574E-06 Note: One successful gmin step
Trying gmin =   1.2377E-06 Note: One successful gmin step
Trying gmin =   1.0777E-06 Note: One successful gmin step
Trying gmin =   8.7556E-07 Note: One successful gmin step
Trying gmin =   6.4118E-07 Note: One successful gmin step
Trying gmin =   4.0181E-07 Note: One successful gmin step
Trying gmin =   1.9934E-07 Note: One successful gmin step
Trying gmin =   6.9652E-08 Note: One successful gmin step
Trying gmin =   1.4386E-08 Note: One successful gmin step
Trying gmin =   1.4386E-09 Note: One successful gmin step
Trying gmin =   1.4386E-10 Note: One successful gmin step
Trying gmin =   1.4386E-11 Note: One successful gmin step
Trying gmin =   1.4386E-12 Note: One successful gmin step
Trying gmin =   1.0000E-12 Note: One successful gmin step
Note: Dynamic gmin stepping completed
 Reference value :  2.80000e+00Note: Starting true gmin stepping
Trying gmin =   1.0000E-03 Note: One successful gmin step
Trying gmin =   1.0000E-04 Note: One successful gmin step
Trying gmin =   1.0000E-05 Note: One successful gmin step
Trying gmin =   1.0000E-06 Note: One successful gmin step
Trying gmin =   1.0000E-07 Note: One successful gmin step
Trying gmin =   1.0000E-08 Warning: Further gmin increment
Trying gmin =   5.6234E-08 Note: One successful gmin step
Trying gmin =   2.3714E-08 Note: One successful gmin step
Trying gmin =   6.4938E-09 Note: One successful gmin step
Trying gmin =   9.3057E-10 Warning: Further gmin increment
Trying gmin =   3.9954E-09 Note: One successful gmin step
Trying gmin =   1.9282E-09 Warning: Further gmin increment
Trying gmin =   3.3301E-09 Note: One successful gmin step
Trying gmin =   2.5340E-09 Note: One successful gmin step
Trying gmin =   1.6820E-09 Warning: Further gmin increment
Trying gmin =   2.2873E-09 Note: One successful gmin step
Trying gmin =   1.9614E-09 Warning: Further gmin increment
Trying gmin =   2.2010E-09 Note: One successful gmin step
Trying gmin =   2.0778E-09 Note: One successful gmin step
Trying gmin =   1.9057E-09 Note: One successful gmin step
Trying gmin =   1.6740E-09 Note: One successful gmin step
Trying gmin =   1.3781E-09 Note: One successful gmin step
Trying gmin =   1.0294E-09 Note: One successful gmin step
Trying gmin =   6.6452E-10 Note: One successful gmin step
Trying gmin =   3.4469E-10 Note: One successful gmin step
Trying gmin =   1.2876E-10 Note: One successful gmin step
Trying gmin =   2.9400E-11 Note: One successful gmin step
Trying gmin =   3.2076E-12 Note: One successful gmin step
Trying gmin =   1.0000E-12 Note: One successful gmin step
Note: True gmin stepping completed
 Reference value :  1.32000e+00Note: Starting true gmin stepping
Trying gmin =   1.0000E-03 Note: One successful gmin step
Trying gmin =   1.0000E-04 Note: One successful gmin step
Trying gmin =   1.0000E-05 Note: One successful gmin step
Trying gmin =   1.0000E-06 Note: One successful gmin step
Trying gmin =   1.0000E-07 Note: One successful gmin step
Trying gmin =   1.0000E-08 Note: One successful gmin step
Trying gmin =   1.0000E-09 Warning: Further gmin increment
Trying gmin =   5.6234E-09 Note: One successful gmin step
Trying gmin =   2.3714E-09 Note: One successful gmin step
Trying gmin =   6.4938E-10 Warning: Further gmin increment
Trying gmin =   1.7154E-09 Warning: Further gmin increment
Trying gmin =   2.1870E-09 Note: One successful gmin step
Trying gmin =   1.9369E-09 Note: One successful gmin step
Trying gmin =   1.6144E-09 Warning: Further gmin increment
Trying gmin =   1.8507E-09 Note: One successful gmin step
Trying gmin =   1.7285E-09 Warning: Further gmin increment
Trying gmin =   1.8194E-09 Note: One successful gmin step
Trying gmin =   1.7734E-09 Note: One successful gmin step
Trying gmin =   1.7065E-09 Warning: Further gmin increment
Trying gmin =   1.7564E-09 Note: One successful gmin step
Trying gmin =   1.7313E-09 Note: One successful gmin step
Trying gmin =   1.7065E-09 Note: One successful gmin step
Trying gmin =   1.6700E-09 Note: One successful gmin step
Trying gmin =   1.6168E-09 Note: One successful gmin step
Trying gmin =   1.5400E-09 Note: One successful gmin step
Trying gmin =   1.4317E-09 Note: One successful gmin step
Trying gmin =   1.2833E-09 Note: One successful gmin step
Trying gmin =   1.0891E-09 Note: One successful gmin step
Trying gmin =   8.5145E-10 Note: One successful gmin step
Trying gmin =   5.8857E-10 Note: One successful gmin step
Trying gmin =   3.3826E-10 Note: One successful gmin step
Trying gmin =   1.4738E-10 Note: One successful gmin step
Trying gmin =   4.2386E-11 Note: One successful gmin step
Trying gmin =   6.5372E-12 Note: One successful gmin step
Trying gmin =   1.0000E-12 Note: One successful gmin step
Note: True gmin stepping completed
 Reference value :  1.30000e+00pm                  =  6.588929e+01
Doing analysis at TEMP = 27.000000 and TNOM = 27.000000


No. of Data Rows : 91
psrr100             =  -7.442089e+01
psrr100k            =  -2.676460e+01
Doing analysis at TEMP = 27.000000 and TNOM = 27.000000


No. of Data Rows : 86
temp_coeff = 3.506334e+01
Doing analysis at TEMP = 27.000000 and TNOM = 27.000000


No. of Data Rows : 141
vldo_sup_2          =  1.803941e+00
vldo_sup_2_8        =  1.803798e+00
line_reg = 1.787500e-04
Note: No ".plot", ".print", or ".fourier" lines; no simulations run
vin                 =  1.764124e+00
dropout = 1.240000e-04
