 Reference value :  0.00000e+00
No compatibility mode selected!


Circuit: * ldo netlist 

Doing analysis at TEMP = 27.000000 and TNOM = 27.000000


No. of Data Rows : 1
bg_out = 1.195707e+00
inn = 1.227344e+00
inp = 1.227297e+00
l1#branch = 0.000000e+00
ldo_out = 1.799352e+00
m.xm1.msky130_fd_pr__nfet_g5v0d10v5#body = 1.396950e-11
m.xm1.msky130_fd_pr__nfet_g5v0d10v5#dbody = 2.644231e-11
m.xm1.msky130_fd_pr__nfet_g5v0d10v5#sbody = 1.546617e-11
m.xm2.msky130_fd_pr__pfet_g5v0d10v5#body = 2.100000e+00
m.xm2.msky130_fd_pr__pfet_g5v0d10v5#dbody = 2.100000e+00
m.xm2.msky130_fd_pr__pfet_g5v0d10v5#sbody = 2.100000e+00
m.xm3.msky130_fd_pr__pfet_g5v0d10v5#body = 2.100000e+00
m.xm3.msky130_fd_pr__pfet_g5v0d10v5#dbody = 2.100000e+00
m.xm3.msky130_fd_pr__pfet_g5v0d10v5#sbody = 2.100000e+00
m.xm4.msky130_fd_pr__pfet_g5v0d10v5#body = 2.100000e+00
m.xm4.msky130_fd_pr__pfet_g5v0d10v5#dbody = 2.100000e+00
m.xm4.msky130_fd_pr__pfet_g5v0d10v5#sbody = 2.100000e+00
m.xm5.msky130_fd_pr__pfet_g5v0d10v5#body = 2.100000e+00
m.xm5.msky130_fd_pr__pfet_g5v0d10v5#dbody = 2.100000e+00
m.xm5.msky130_fd_pr__pfet_g5v0d10v5#sbody = 2.100000e+00
m.xm6.msky130_fd_pr__nfet_g5v0d10v5#body = 1.116762e-11
m.xm6.msky130_fd_pr__nfet_g5v0d10v5#dbody = 2.791905e-11
m.xm6.msky130_fd_pr__nfet_g5v0d10v5#sbody = 5.583817e-12
m.xm7.msky130_fd_pr__pfet_g5v0d10v5#body = 2.100000e+00
m.xm7.msky130_fd_pr__pfet_g5v0d10v5#dbody = 2.100000e+00
m.xm7.msky130_fd_pr__pfet_g5v0d10v5#sbody = 2.100000e+00
m.xm8.msky130_fd_pr__pfet_g5v0d10v5#body = 2.100000e+00
m.xm8.msky130_fd_pr__pfet_g5v0d10v5#dbody = 2.100000e+00
m.xm8.msky130_fd_pr__pfet_g5v0d10v5#sbody = 2.100000e+00
m.xm9.msky130_fd_pr__nfet_g5v0d10v5#body = 1.467888e-11
m.xm9.msky130_fd_pr__nfet_g5v0d10v5#dbody = 2.910750e-11
m.xm9.msky130_fd_pr__nfet_g5v0d10v5#sbody = 1.492913e-11
m.xm10.msky130_fd_pr__nfet_g5v0d10v5#body = 1.448839e-11
m.xm10.msky130_fd_pr__nfet_g5v0d10v5#dbody = 2.863128e-11
m.xm10.msky130_fd_pr__nfet_g5v0d10v5#sbody = 1.483388e-11
m.xm11.msky130_fd_pr__pfet_g5v0d10v5#body = 2.100000e+00
m.xm11.msky130_fd_pr__pfet_g5v0d10v5#dbody = 2.100000e+00
m.xm11.msky130_fd_pr__pfet_g5v0d10v5#sbody = 2.100000e+00
m.xm12.msky130_fd_pr__pfet_g5v0d10v5#body = 2.100000e+00
m.xm12.msky130_fd_pr__pfet_g5v0d10v5#dbody = 2.100000e+00
m.xm12.msky130_fd_pr__pfet_g5v0d10v5#sbody = 2.100000e+00
m.xm13.msky130_fd_pr__nfet_g5v0d10v5#body = 3.793487e-12
m.xm13.msky130_fd_pr__nfet_g5v0d10v5#dbody = 9.483705e-12
m.xm13.msky130_fd_pr__nfet_g5v0d10v5#sbody = 1.896755e-12
m.xm14.msky130_fd_pr__pfet_g5v0d10v5#body = 2.100000e+00
m.xm14.msky130_fd_pr__pfet_g5v0d10v5#dbody = 2.100000e+00
m.xm14.msky130_fd_pr__pfet_g5v0d10v5#sbody = 2.100000e+00
m.xm15.msky130_fd_pr__nfet_g5v0d10v5#body = 2.076790e-18
m.xm15.msky130_fd_pr__nfet_g5v0d10v5#dbody = 5.191774e-18
m.xm15.msky130_fd_pr__nfet_g5v0d10v5#sbody = 1.038595e-18
m.xm16.msky130_fd_pr__nfet_g5v0d10v5#body = 4.160042e-11
m.xm16.msky130_fd_pr__nfet_g5v0d10v5#dbody = 7.330884e-11
m.xm16.msky130_fd_pr__nfet_g5v0d10v5#sbody = 5.149243e-11
m.xm17.msky130_fd_pr__pfet_g5v0d10v5#body = 2.100000e+00
m.xm17.msky130_fd_pr__pfet_g5v0d10v5#dbody = 2.100000e+00
m.xm17.msky130_fd_pr__pfet_g5v0d10v5#sbody = 2.100000e+00
m.xm18.msky130_fd_pr__nfet_g5v0d10v5#body = 1.486792e-11
m.xm18.msky130_fd_pr__nfet_g5v0d10v5#dbody = 3.716978e-11
m.xm18.msky130_fd_pr__nfet_g5v0d10v5#sbody = 7.433972e-12
m.xm19.msky130_fd_pr__nfet_g5v0d10v5#body = 1.401597e-11
m.xm19.msky130_fd_pr__nfet_g5v0d10v5#dbody = 2.655849e-11
m.xm19.msky130_fd_pr__nfet_g5v0d10v5#sbody = 1.548941e-11
m.xm20.msky130_fd_pr__nfet_g5v0d10v5#body = 1.108309e-11
m.xm20.msky130_fd_pr__nfet_g5v0d10v5#dbody = 2.770771e-11
m.xm20.msky130_fd_pr__nfet_g5v0d10v5#sbody = 5.541557e-12
m.xm22.msky130_fd_pr__nfet_g5v0d10v5#body = 4.243426e-12
m.xm22.msky130_fd_pr__nfet_g5v0d10v5#dbody = 1.060856e-11
m.xm22.msky130_fd_pr__nfet_g5v0d10v5#sbody = 2.121718e-12
m.xm24.msky130_fd_pr__pfet_g5v0d10v5#body = 2.100000e+00
m.xm24.msky130_fd_pr__pfet_g5v0d10v5#dbody = 2.100000e+00
m.xm24.msky130_fd_pr__pfet_g5v0d10v5#sbody = 2.100000e+00
m.xm26.msky130_fd_pr__pfet_g5v0d10v5#body = 2.100000e+00
m.xm26.msky130_fd_pr__pfet_g5v0d10v5#dbody = 2.100000e+00
m.xm26.msky130_fd_pr__pfet_g5v0d10v5#sbody = 2.100000e+00
mir = 7.779574e-01
net1 = 7.274479e-01
net2 = 1.598052e-07
net3 = 7.873102e-01
net4 = 3.389118e-01
net5 = 7.816753e-01
net6 = 8.928475e-01
net7 = 7.872626e-01
net8 = 8.552469e-01
net9 = 8.704860e-01
net10 = 3.033508e-01
net11 = 1.189305e+00
net12 = 1.189305e+00
net13 = 0.000000e+00
out = 1.189305e+00
pos = 1.195904e+00
q.xq2.qsky130_fd_pr__pnp_05v5_w0p68l0p68#collcx = 2.276727e-03
q.xq3.qsky130_fd_pr__pnp_05v5_w0p68l0p68#collcx = 2.869351e-04
q.xq4.qsky130_fd_pr__pnp_05v5_w0p68l0p68#collcx = 2.869351e-04
q.xq8.qsky130_fd_pr__pnp_05v5_w0p68l0p68#collcx = 2.869351e-04
q.xq10.qsky130_fd_pr__pnp_05v5_w0p68l0p68#collcx = 2.869351e-04
q.xq12.qsky130_fd_pr__pnp_05v5_w0p68l0p68#collcx = 2.869351e-04
q.xq14.qsky130_fd_pr__pnp_05v5_w0p68l0p68#collcx = 2.869351e-04
q.xq16.qsky130_fd_pr__pnp_05v5_w0p68l0p68#collcx = 2.869351e-04
q.xq18.qsky130_fd_pr__pnp_05v5_w0p68l0p68#collcx = 2.869351e-04
vb = 8.865188e-01
vdd = 2.100000e+00
vs#branch = -1.82495e-04
vt#branch = 0.000000e+00
xc1.a = 0.000000e+00
xc1.b1 = 0.000000e+00
xc3.a = 1.189305e+00
xc3.b1 = 1.189305e+00
xr1.xsky130_fd_pr__res_xhigh_po_0p69.ra = 7.901656e-01
xr2.xsky130_fd_pr__res_xhigh_po_0p69.ra = 7.902132e-01
xr3.xsky130_fd_pr__res_xhigh_po_0p69.ra = 1.966630e-03
xr4.xsky130_fd_pr__res_xhigh_po_0p69.ra = 7.284223e-01
xr5.xsky130_fd_pr__res_xhigh_po_0p69.ra = 1.966503e-03
xr6.xsky130_fd_pr__res_xhigh_po_0p69.ra = 3.086574e-03
xr7.xsky130_fd_pr__res_xhigh_po_0p69.ra = 1.189305e+00
xr8.xsky130_fd_pr__res_xhigh_po_0p69.ra = 1.201034e+00
xr9.xsky130_fd_pr__res_xhigh_po_0p69.ra = 5.380484e-03
Doing analysis at TEMP = 27.000000 and TNOM = 27.000000


No. of Data Rows : 91
Note: Starting true gmin stepping
Trying gmin =   1.0000E-03 Note: One successful gmin step
Trying gmin =   1.0000E-04 Note: One successful gmin step
Trying gmin =   1.0000E-05 Note: One successful gmin step
Trying gmin =   1.0000E-06 Note: One successful gmin step
Trying gmin =   1.0000E-07 Warning: Further gmin increment
Trying gmin =   5.6234E-07 Note: One successful gmin step
Trying gmin =   2.3714E-07 Note: One successful gmin step
Trying gmin =   6.4938E-08 Note: One successful gmin step
Trying gmin =   9.3057E-09 Warning: Further gmin increment
Trying gmin =   3.9954E-08 Note: One successful gmin step
Trying gmin =   2.4582E-08 Note: One successful gmin step
Trying gmin =   1.1864E-08 Note: One successful gmin step
Trying gmin =   3.9775E-09 Note: One successful gmin step
Trying gmin =   7.7214E-10 Note: One successful gmin step
Trying gmin =   7.7214E-11 Note: One successful gmin step
Trying gmin =   7.7214E-12 Note: One successful gmin step
Trying gmin =   1.0000E-12 Note: One successful gmin step
Note: True gmin stepping completed
 Reference value :  1.58000e+00Note: Starting true gmin stepping
Trying gmin =   1.0000E-03 Note: One successful gmin step
Trying gmin =   1.0000E-04 Note: One successful gmin step
Trying gmin =   1.0000E-05 Note: One successful gmin step
Trying gmin =   1.0000E-06 Note: One successful gmin step
Trying gmin =   1.0000E-07 Warning: Further gmin increment
Trying gmin =   5.6234E-07 Note: One successful gmin step
Trying gmin =   2.3714E-07 Note: One successful gmin step
Trying gmin =   6.4938E-08 Note: One successful gmin step
Trying gmin =   9.3057E-09 Warning: Further gmin increment
Trying gmin =   3.9954E-08 Note: One successful gmin step
Trying gmin =   3.1340E-08 Note: One successful gmin step
Trying gmin =   2.1772E-08 Note: One successful gmin step
Trying gmin =   1.2606E-08 Note: One successful gmin step
Trying gmin =   5.5543E-09 Note: One successful gmin step
Trying gmin =   1.6244E-09 Note: One successful gmin step
Trying gmin =   2.5692E-10 Note: One successful gmin step
Trying gmin =   2.5692E-11 Note: One successful gmin step
Trying gmin =   2.5692E-12 Note: One successful gmin step
Trying gmin =   1.0000E-12 Note: One successful gmin step
Note: True gmin stepping completed
 Reference value :  7.00000e-01pm                  =  5.146049e+01
Doing analysis at TEMP = 27.000000 and TNOM = 27.000000


No. of Data Rows : 91
psrr100             =  -6.401530e+01
psrr100k            =  -2.819613e+01
Doing analysis at TEMP = 27.000000 and TNOM = 27.000000


No. of Data Rows : 86
temp_coeff = 1.625062e+02
Doing analysis at TEMP = 27.000000 and TNOM = 27.000000


No. of Data Rows : 141
vldo_sup_2          =  1.799227e+00
vldo_sup_2_8        =  1.799368e+00
line_reg = 1.762500e-04
Note: No ".plot", ".print", or ".fourier" lines; no simulations run
vin                 =  1.764166e+00
dropout = 1.660000e-04
