 Reference value :  0.00000e+00
No compatibility mode selected!


Circuit: * ldo netlist 

Doing analysis at TEMP = 85.000000 and TNOM = 27.000000


No. of Data Rows : 1
bg_out = 1.200698e+00
inn = 1.146622e+00
inp = 1.146611e+00
l1#branch = 0.000000e+00
ldo_out = 1.806381e+00
m.xm1.msky130_fd_pr__nfet_g5v0d10v5#body = 3.030134e-11
m.xm1.msky130_fd_pr__nfet_g5v0d10v5#dbody = 5.697150e-11
m.xm1.msky130_fd_pr__nfet_g5v0d10v5#sbody = 3.393253e-11
m.xm2.msky130_fd_pr__pfet_g5v0d10v5#body = 2.500000e+00
m.xm2.msky130_fd_pr__pfet_g5v0d10v5#dbody = 2.500000e+00
m.xm2.msky130_fd_pr__pfet_g5v0d10v5#sbody = 2.500000e+00
m.xm3.msky130_fd_pr__pfet_g5v0d10v5#body = 2.500000e+00
m.xm3.msky130_fd_pr__pfet_g5v0d10v5#dbody = 2.500000e+00
m.xm3.msky130_fd_pr__pfet_g5v0d10v5#sbody = 2.500000e+00
m.xm4.msky130_fd_pr__pfet_g5v0d10v5#body = 2.500000e+00
m.xm4.msky130_fd_pr__pfet_g5v0d10v5#dbody = 2.500000e+00
m.xm4.msky130_fd_pr__pfet_g5v0d10v5#sbody = 2.500000e+00
m.xm5.msky130_fd_pr__pfet_g5v0d10v5#body = 2.500000e+00
m.xm5.msky130_fd_pr__pfet_g5v0d10v5#dbody = 2.500000e+00
m.xm5.msky130_fd_pr__pfet_g5v0d10v5#sbody = 2.500000e+00
m.xm6.msky130_fd_pr__nfet_g5v0d10v5#body = 1.910077e-11
m.xm6.msky130_fd_pr__nfet_g5v0d10v5#dbody = 4.775180e-11
m.xm6.msky130_fd_pr__nfet_g5v0d10v5#sbody = 9.550495e-12
m.xm7.msky130_fd_pr__pfet_g5v0d10v5#body = 2.500000e+00
m.xm7.msky130_fd_pr__pfet_g5v0d10v5#dbody = 2.500000e+00
m.xm7.msky130_fd_pr__pfet_g5v0d10v5#sbody = 2.500000e+00
m.xm8.msky130_fd_pr__pfet_g5v0d10v5#body = 2.500000e+00
m.xm8.msky130_fd_pr__pfet_g5v0d10v5#dbody = 2.500000e+00
m.xm8.msky130_fd_pr__pfet_g5v0d10v5#sbody = 2.500000e+00
m.xm9.msky130_fd_pr__nfet_g5v0d10v5#body = 2.854078e-11
m.xm9.msky130_fd_pr__nfet_g5v0d10v5#dbody = 5.522584e-11
m.xm9.msky130_fd_pr__nfet_g5v0d10v5#sbody = 3.039649e-11
m.xm10.msky130_fd_pr__nfet_g5v0d10v5#body = 2.845663e-11
m.xm10.msky130_fd_pr__nfet_g5v0d10v5#dbody = 5.501546e-11
m.xm10.msky130_fd_pr__nfet_g5v0d10v5#sbody = 3.035441e-11
m.xm11.msky130_fd_pr__pfet_g5v0d10v5#body = 2.500000e+00
m.xm11.msky130_fd_pr__pfet_g5v0d10v5#dbody = 2.500000e+00
m.xm11.msky130_fd_pr__pfet_g5v0d10v5#sbody = 2.500000e+00
m.xm12.msky130_fd_pr__pfet_g5v0d10v5#body = 2.500000e+00
m.xm12.msky130_fd_pr__pfet_g5v0d10v5#dbody = 2.500000e+00
m.xm12.msky130_fd_pr__pfet_g5v0d10v5#sbody = 2.500000e+00
m.xm13.msky130_fd_pr__nfet_g5v0d10v5#body = 6.415339e-12
m.xm13.msky130_fd_pr__nfet_g5v0d10v5#dbody = 1.603828e-11
m.xm13.msky130_fd_pr__nfet_g5v0d10v5#sbody = 3.207738e-12
m.xm14.msky130_fd_pr__pfet_g5v0d10v5#body = 2.500000e+00
m.xm14.msky130_fd_pr__pfet_g5v0d10v5#dbody = 2.500000e+00
m.xm14.msky130_fd_pr__pfet_g5v0d10v5#sbody = 2.500000e+00
m.xm15.msky130_fd_pr__nfet_g5v0d10v5#body = 1.410687e-14
m.xm15.msky130_fd_pr__nfet_g5v0d10v5#dbody = 3.526598e-14
m.xm15.msky130_fd_pr__nfet_g5v0d10v5#sbody = 7.054637e-15
m.xm16.msky130_fd_pr__nfet_g5v0d10v5#body = 5.606315e-11
m.xm16.msky130_fd_pr__nfet_g5v0d10v5#dbody = 1.010119e-10
m.xm16.msky130_fd_pr__nfet_g5v0d10v5#sbody = 6.717749e-11
m.xm17.msky130_fd_pr__pfet_g5v0d10v5#body = 2.500000e+00
m.xm17.msky130_fd_pr__pfet_g5v0d10v5#dbody = 2.500000e+00
m.xm17.msky130_fd_pr__pfet_g5v0d10v5#sbody = 2.500000e+00
m.xm18.msky130_fd_pr__nfet_g5v0d10v5#body = 1.336750e-11
m.xm18.msky130_fd_pr__nfet_g5v0d10v5#dbody = 3.341868e-11
m.xm18.msky130_fd_pr__nfet_g5v0d10v5#sbody = 6.683827e-12
m.xm19.msky130_fd_pr__nfet_g5v0d10v5#body = 3.031826e-11
m.xm19.msky130_fd_pr__nfet_g5v0d10v5#dbody = 5.701380e-11
m.xm19.msky130_fd_pr__nfet_g5v0d10v5#sbody = 3.394099e-11
m.xm20.msky130_fd_pr__nfet_g5v0d10v5#body = 1.237573e-11
m.xm20.msky130_fd_pr__nfet_g5v0d10v5#dbody = 3.093926e-11
m.xm20.msky130_fd_pr__nfet_g5v0d10v5#sbody = 6.187941e-12
m.xm22.msky130_fd_pr__nfet_g5v0d10v5#body = 1.268638e-11
m.xm22.msky130_fd_pr__nfet_g5v0d10v5#dbody = 3.171583e-11
m.xm22.msky130_fd_pr__nfet_g5v0d10v5#sbody = 6.343298e-12
m.xm24.msky130_fd_pr__pfet_g5v0d10v5#body = 2.500000e+00
m.xm24.msky130_fd_pr__pfet_g5v0d10v5#dbody = 2.500000e+00
m.xm24.msky130_fd_pr__pfet_g5v0d10v5#sbody = 2.500000e+00
m.xm26.msky130_fd_pr__pfet_g5v0d10v5#body = 2.500000e+00
m.xm26.msky130_fd_pr__pfet_g5v0d10v5#dbody = 2.500000e+00
m.xm26.msky130_fd_pr__pfet_g5v0d10v5#sbody = 2.500000e+00
mir = 1.253618e+00
net1 = 6.299207e-01
net2 = 2.729516e-05
net3 = 7.034543e-01
net4 = 3.320786e-01
net5 = 1.254972e+00
net6 = 8.451983e-01
net7 = 7.034425e-01
net8 = 1.344093e+00
net9 = 1.350825e+00
net10 = 3.576570e-01
net11 = 9.138267e-01
net12 = 9.138267e-01
net13 = 0.000000e+00
out = 9.138267e-01
pos = 1.200770e+00
q.xq2.qsky130_fd_pr__pnp_05v5_w0p68l0p68#collcx = 2.965383e-03
q.xq3.qsky130_fd_pr__pnp_05v5_w0p68l0p68#collcx = 3.742265e-04
q.xq4.qsky130_fd_pr__pnp_05v5_w0p68l0p68#collcx = 3.742265e-04
q.xq8.qsky130_fd_pr__pnp_05v5_w0p68l0p68#collcx = 3.742265e-04
q.xq10.qsky130_fd_pr__pnp_05v5_w0p68l0p68#collcx = 3.742265e-04
q.xq12.qsky130_fd_pr__pnp_05v5_w0p68l0p68#collcx = 3.742265e-04
q.xq14.qsky130_fd_pr__pnp_05v5_w0p68l0p68#collcx = 3.742265e-04
q.xq16.qsky130_fd_pr__pnp_05v5_w0p68l0p68#collcx = 3.742265e-04
q.xq18.qsky130_fd_pr__pnp_05v5_w0p68l0p68#collcx = 3.742265e-04
vb = 8.344850e-01
vdd = 2.500000e+00
vs#branch = -1.00493e-01
vt#branch = 0.000000e+00
xc1.a = 0.000000e+00
xc1.b1 = 0.000000e+00
xc3.a = 9.138267e-01
xc3.b1 = 9.138267e-01
xr1.xsky130_fd_pr__res_xhigh_po_0p69.ra = 7.092592e-01
xr2.xsky130_fd_pr__res_xhigh_po_0p69.ra = 7.092710e-01
xr3.xsky130_fd_pr__res_xhigh_po_0p69.ra = 3.468457e-03
xr4.xsky130_fd_pr__res_xhigh_po_0p69.ra = 6.323011e-01
xr5.xsky130_fd_pr__res_xhigh_po_0p69.ra = 3.468396e-03
xr6.xsky130_fd_pr__res_xhigh_po_0p69.ra = 6.162595e-03
xr7.xsky130_fd_pr__res_xhigh_po_0p69.ra = 9.138267e-01
xr8.xsky130_fd_pr__res_xhigh_po_0p69.ra = 1.211013e+00
xr9.xsky130_fd_pr__res_xhigh_po_0p69.ra = 1.074389e-02
Doing analysis at TEMP = 85.000000 and TNOM = 27.000000


No. of Data Rows : 91
 Reference value :  1.32000e+00Note: Starting true gmin stepping
Trying gmin =   1.0000E-03 Note: One successful gmin step
Trying gmin =   1.0000E-04 Note: One successful gmin step
Trying gmin =   1.0000E-05 Note: One successful gmin step
Trying gmin =   1.0000E-06 Note: One successful gmin step
Trying gmin =   1.0000E-07 Note: One successful gmin step
Trying gmin =   1.0000E-08 Warning: Further gmin increment
Trying gmin =   5.6234E-08 Note: One successful gmin step
Trying gmin =   2.3714E-08 Note: One successful gmin step
Trying gmin =   6.4938E-09 Note: One successful gmin step
Trying gmin =   1.7783E-09 Note: One successful gmin step
Trying gmin =   2.5483E-10 Note: One successful gmin step
Trying gmin =   2.5483E-11 Note: One successful gmin step
Trying gmin =   2.5483E-12 Note: One successful gmin step
Trying gmin =   1.0000E-12 Note: One successful gmin step
Note: True gmin stepping completed
Note: Starting true gmin stepping
Trying gmin =   1.0000E-03 Note: One successful gmin step
Trying gmin =   1.0000E-04 Note: One successful gmin step
Trying gmin =   1.0000E-05 Note: One successful gmin step
Trying gmin =   1.0000E-06 Note: One successful gmin step
Trying gmin =   1.0000E-07 Note: One successful gmin step
Trying gmin =   1.0000E-08 Note: One successful gmin step
Trying gmin =   1.0000E-09 Note: One successful gmin step
Trying gmin =   1.0000E-10 Note: One successful gmin step
Trying gmin =   1.0000E-11 Note: One successful gmin step
Trying gmin =   1.0000E-12 Note: One successful gmin step
Trying gmin =   1.0000E-12 Note: One successful gmin step
Note: True gmin stepping completed
 Reference value :  1.14000e+00pm                  =  1.230548e+02
Doing analysis at TEMP = 85.000000 and TNOM = 27.000000


No. of Data Rows : 91
psrr100             =  -5.298341e+01
psrr100k            =  -2.484689e+01
Doing analysis at TEMP = 85.000000 and TNOM = 27.000000


No. of Data Rows : 86
temp_coeff = 1.438468e+02
Doing analysis at TEMP = 85.000000 and TNOM = 27.000000


No. of Data Rows : 141
vldo_sup_2          =  1.771801e+00
vldo_sup_2_8        =  1.807117e+00
line_reg = 4.414500e-02
Note: No ".plot", ".print", or ".fourier" lines; no simulations run
vin                 =  1.992805e+00
dropout = 2.288050e-01
