 Reference value :  0.00000e+00
No compatibility mode selected!


Circuit: * ldo netlist 

Doing analysis at TEMP = 85.000000 and TNOM = 27.000000


No. of Data Rows : 1
bg_out = 1.102044e+00
inn = 1.064535e+00
inp = 1.064422e+00
l1#branch = 0.000000e+00
ldo_out = 1.812137e+00
m.xm1.msky130_fd_pr__nfet_g5v0d10v5#body = 3.069534e-11
m.xm1.msky130_fd_pr__nfet_g5v0d10v5#dbody = 6.185629e-11
m.xm1.msky130_fd_pr__nfet_g5v0d10v5#sbody = 3.022942e-11
m.xm2.msky130_fd_pr__pfet_g5v0d10v5#body = 2.500000e+00
m.xm2.msky130_fd_pr__pfet_g5v0d10v5#dbody = 2.500000e+00
m.xm2.msky130_fd_pr__pfet_g5v0d10v5#sbody = 2.500000e+00
m.xm3.msky130_fd_pr__pfet_g5v0d10v5#body = 2.500000e+00
m.xm3.msky130_fd_pr__pfet_g5v0d10v5#dbody = 2.500000e+00
m.xm3.msky130_fd_pr__pfet_g5v0d10v5#sbody = 2.500000e+00
m.xm4.msky130_fd_pr__pfet_g5v0d10v5#body = 2.500000e+00
m.xm4.msky130_fd_pr__pfet_g5v0d10v5#dbody = 2.500000e+00
m.xm4.msky130_fd_pr__pfet_g5v0d10v5#sbody = 2.500000e+00
m.xm5.msky130_fd_pr__pfet_g5v0d10v5#body = 2.500000e+00
m.xm5.msky130_fd_pr__pfet_g5v0d10v5#dbody = 2.500000e+00
m.xm5.msky130_fd_pr__pfet_g5v0d10v5#sbody = 2.500000e+00
m.xm6.msky130_fd_pr__nfet_g5v0d10v5#body = 2.059908e-11
m.xm6.msky130_fd_pr__nfet_g5v0d10v5#dbody = 5.149759e-11
m.xm6.msky130_fd_pr__nfet_g5v0d10v5#sbody = 1.029966e-11
m.xm7.msky130_fd_pr__pfet_g5v0d10v5#body = 2.500000e+00
m.xm7.msky130_fd_pr__pfet_g5v0d10v5#dbody = 2.500000e+00
m.xm7.msky130_fd_pr__pfet_g5v0d10v5#sbody = 2.500000e+00
m.xm8.msky130_fd_pr__pfet_g5v0d10v5#body = 2.500000e+00
m.xm8.msky130_fd_pr__pfet_g5v0d10v5#dbody = 2.500000e+00
m.xm8.msky130_fd_pr__pfet_g5v0d10v5#sbody = 2.500000e+00
m.xm9.msky130_fd_pr__nfet_g5v0d10v5#body = 2.888972e-11
m.xm9.msky130_fd_pr__nfet_g5v0d10v5#dbody = 6.039983e-11
m.xm9.msky130_fd_pr__nfet_g5v0d10v5#sbody = 2.626767e-11
m.xm10.msky130_fd_pr__nfet_g5v0d10v5#body = 2.860917e-11
m.xm10.msky130_fd_pr__nfet_g5v0d10v5#dbody = 5.969914e-11
m.xm10.msky130_fd_pr__nfet_g5v0d10v5#sbody = 2.612739e-11
m.xm11.msky130_fd_pr__pfet_g5v0d10v5#body = 2.500000e+00
m.xm11.msky130_fd_pr__pfet_g5v0d10v5#dbody = 2.500000e+00
m.xm11.msky130_fd_pr__pfet_g5v0d10v5#sbody = 2.500000e+00
m.xm12.msky130_fd_pr__pfet_g5v0d10v5#body = 2.500000e+00
m.xm12.msky130_fd_pr__pfet_g5v0d10v5#dbody = 2.500000e+00
m.xm12.msky130_fd_pr__pfet_g5v0d10v5#sbody = 2.500000e+00
m.xm13.msky130_fd_pr__nfet_g5v0d10v5#body = 4.270807e-12
m.xm13.msky130_fd_pr__nfet_g5v0d10v5#dbody = 1.067695e-11
m.xm13.msky130_fd_pr__nfet_g5v0d10v5#sbody = 2.135468e-12
m.xm14.msky130_fd_pr__pfet_g5v0d10v5#body = 2.500000e+00
m.xm14.msky130_fd_pr__pfet_g5v0d10v5#dbody = 2.500000e+00
m.xm14.msky130_fd_pr__pfet_g5v0d10v5#sbody = 2.500000e+00
m.xm15.msky130_fd_pr__nfet_g5v0d10v5#body = 1.590796e-13
m.xm15.msky130_fd_pr__nfet_g5v0d10v5#dbody = 3.976944e-13
m.xm15.msky130_fd_pr__nfet_g5v0d10v5#sbody = 7.954431e-14
m.xm16.msky130_fd_pr__nfet_g5v0d10v5#body = 5.518524e-11
m.xm16.msky130_fd_pr__nfet_g5v0d10v5#dbody = 1.007212e-10
m.xm16.msky130_fd_pr__nfet_g5v0d10v5#sbody = 6.483455e-11
m.xm17.msky130_fd_pr__pfet_g5v0d10v5#body = 2.500000e+00
m.xm17.msky130_fd_pr__pfet_g5v0d10v5#dbody = 2.500000e+00
m.xm17.msky130_fd_pr__pfet_g5v0d10v5#sbody = 2.500000e+00
m.xm18.msky130_fd_pr__nfet_g5v0d10v5#body = 1.721832e-11
m.xm18.msky130_fd_pr__nfet_g5v0d10v5#dbody = 4.304571e-11
m.xm18.msky130_fd_pr__nfet_g5v0d10v5#sbody = 8.609242e-12
m.xm19.msky130_fd_pr__nfet_g5v0d10v5#body = 3.088152e-11
m.xm19.msky130_fd_pr__nfet_g5v0d10v5#dbody = 6.232161e-11
m.xm19.msky130_fd_pr__nfet_g5v0d10v5#sbody = 3.032251e-11
m.xm20.msky130_fd_pr__nfet_g5v0d10v5#body = 1.466530e-11
m.xm20.msky130_fd_pr__nfet_g5v0d10v5#dbody = 3.666317e-11
m.xm20.msky130_fd_pr__nfet_g5v0d10v5#sbody = 7.332732e-12
m.xm22.msky130_fd_pr__nfet_g5v0d10v5#body = 1.071808e-11
m.xm22.msky130_fd_pr__nfet_g5v0d10v5#dbody = 2.679509e-11
m.xm22.msky130_fd_pr__nfet_g5v0d10v5#sbody = 5.359146e-12
m.xm24.msky130_fd_pr__pfet_g5v0d10v5#body = 2.500000e+00
m.xm24.msky130_fd_pr__pfet_g5v0d10v5#dbody = 2.500000e+00
m.xm24.msky130_fd_pr__pfet_g5v0d10v5#sbody = 2.500000e+00
m.xm26.msky130_fd_pr__pfet_g5v0d10v5#body = 2.500000e+00
m.xm26.msky130_fd_pr__pfet_g5v0d10v5#dbody = 2.500000e+00
m.xm26.msky130_fd_pr__pfet_g5v0d10v5#sbody = 2.500000e+00
mir = 1.435203e+00
net1 = 6.312989e-01
net2 = 3.077426e-04
net3 = 7.051401e-01
net4 = 1.725004e-01
net5 = 1.450092e+00
net6 = 9.591359e-01
net7 = 7.050256e-01
net8 = 1.522462e+00
net9 = 1.544878e+00
net10 = 1.808647e-01
net11 = 1.215964e+00
net12 = 1.215964e+00
net13 = 0.000000e+00
out = 1.215964e+00
pos = 1.102276e+00
q.xq2.qsky130_fd_pr__pnp_05v5_w0p68l0p68#collcx = 3.098016e-03
q.xq3.qsky130_fd_pr__pnp_05v5_w0p68l0p68#collcx = 3.912469e-04
q.xq4.qsky130_fd_pr__pnp_05v5_w0p68l0p68#collcx = 3.912469e-04
q.xq8.qsky130_fd_pr__pnp_05v5_w0p68l0p68#collcx = 3.912469e-04
q.xq10.qsky130_fd_pr__pnp_05v5_w0p68l0p68#collcx = 3.912469e-04
q.xq12.qsky130_fd_pr__pnp_05v5_w0p68l0p68#collcx = 3.912469e-04
q.xq14.qsky130_fd_pr__pnp_05v5_w0p68l0p68#collcx = 3.912469e-04
q.xq16.qsky130_fd_pr__pnp_05v5_w0p68l0p68#collcx = 3.912469e-04
q.xq18.qsky130_fd_pr__pnp_05v5_w0p68l0p68#collcx = 3.912469e-04
vb = 1.011723e+00
vdd = 2.500000e+00
vs#branch = -1.00817e-01
vt#branch = 0.000000e+00
xc1.a = 0.000000e+00
xc1.b1 = 0.000000e+00
xc3.a = 1.215964e+00
xc3.b1 = 1.215964e+00
xr1.xsky130_fd_pr__res_xhigh_po_0p69.ra = 7.082738e-01
xr2.xsky130_fd_pr__res_xhigh_po_0p69.ra = 7.083882e-01
xr3.xsky130_fd_pr__res_xhigh_po_0p69.ra = 1.987314e-03
xr4.xsky130_fd_pr__res_xhigh_po_0p69.ra = 6.325973e-01
xr5.xsky130_fd_pr__res_xhigh_po_0p69.ra = 1.986973e-03
xr6.xsky130_fd_pr__res_xhigh_po_0p69.ra = 3.436408e-03
xr7.xsky130_fd_pr__res_xhigh_po_0p69.ra = 1.215964e+00
xr8.xsky130_fd_pr__res_xhigh_po_0p69.ra = 1.107494e+00
xr9.xsky130_fd_pr__res_xhigh_po_0p69.ra = 5.387300e-03
Doing analysis at TEMP = 85.000000 and TNOM = 27.000000


No. of Data Rows : 91
Error: no such vector PM
 Reference value :  1.80000e+01Note: Starting true gmin stepping
Trying gmin =   1.0000E-03 Note: One successful gmin step
Trying gmin =   1.0000E-04 Note: One successful gmin step
Trying gmin =   1.0000E-05 Note: One successful gmin step
Trying gmin =   1.0000E-06 Warning: Further gmin increment
Trying gmin =   5.6234E-06 Note: One successful gmin step
Trying gmin =   2.3714E-06 Note: One successful gmin step
Trying gmin =   6.4938E-07 Warning: Further gmin increment
Trying gmin =   1.7154E-06 Note: One successful gmin step
Trying gmin =   1.0554E-06 Note: One successful gmin step
Trying gmin =   5.0937E-07 Note: One successful gmin step
Trying gmin =   1.7077E-07 Note: One successful gmin step
Trying gmin =   3.3152E-08 Note: One successful gmin step
Trying gmin =   3.3152E-09 Note: One successful gmin step
Trying gmin =   3.3152E-10 Note: One successful gmin step
Trying gmin =   3.3152E-11 Note: One successful gmin step
Trying gmin =   3.3152E-12 Note: One successful gmin step
Trying gmin =   1.0000E-12 Note: One successful gmin step
Note: True gmin stepping completed
 Reference value :  2.80000e+00Note: Starting true gmin stepping
Trying gmin =   1.0000E-03 Note: One successful gmin step
Trying gmin =   1.0000E-04 Note: One successful gmin step
Trying gmin =   1.0000E-05 Note: One successful gmin step
Trying gmin =   1.0000E-06 Note: One successful gmin step
Trying gmin =   1.0000E-07 Note: One successful gmin step
Trying gmin =   1.0000E-08 Note: One successful gmin step
Trying gmin =   1.0000E-09 Note: One successful gmin step
Trying gmin =   1.0000E-10 Warning: Further gmin increment
Trying gmin =   5.6234E-10 Note: One successful gmin step
Trying gmin =   2.3714E-10 Note: One successful gmin step
Trying gmin =   6.4938E-11 Warning: Further gmin increment
Trying gmin =   1.7154E-10 Note: One successful gmin step
Trying gmin =   1.0554E-10 Note: One successful gmin step
Trying gmin =   5.0937E-11 Note: One successful gmin step
Trying gmin =   1.7077E-11 Note: One successful gmin step
Trying gmin =   3.3152E-12 Note: One successful gmin step
Trying gmin =   1.0000E-12 Note: One successful gmin step
Note: True gmin stepping completed
 Reference value :  1.04000e+00Note: Starting true gmin stepping
Trying gmin =   1.0000E-03 Note: One successful gmin step
Trying gmin =   1.0000E-04 Note: One successful gmin step
Trying gmin =   1.0000E-05 Note: One successful gmin step
Trying gmin =   1.0000E-06 Note: One successful gmin step
Trying gmin =   1.0000E-07 Note: One successful gmin step
Trying gmin =   1.0000E-08 Note: One successful gmin step
Trying gmin =   1.0000E-09 Note: One successful gmin step
Trying gmin =   1.0000E-10 Note: One successful gmin step
Trying gmin =   1.0000E-11 Note: One successful gmin step
Trying gmin =   1.0000E-12 Note: One successful gmin step
Trying gmin =   1.0000E-12 Note: One successful gmin step
Note: True gmin stepping completed
Note: Starting true gmin stepping
Trying gmin =   1.0000E-03 Note: One successful gmin step
Trying gmin =   1.0000E-04 Note: One successful gmin step
Trying gmin =   1.0000E-05 Note: One successful gmin step
Trying gmin =   1.0000E-06 Note: One successful gmin step
Trying gmin =   1.0000E-07 Note: One successful gmin step
Trying gmin =   1.0000E-08 Note: One successful gmin step
Trying gmin =   1.0000E-09 Note: One successful gmin step
Trying gmin =   1.0000E-10 Note: One successful gmin step
Trying gmin =   1.0000E-11 Note: One successful gmin step
Trying gmin =   1.0000E-12 Warning: Further gmin increment
Trying gmin =   5.6234E-12 Note: One successful gmin step
Trying gmin =   2.3714E-12 Note: One successful gmin step
Trying gmin =   1.0000E-12 Warning: Further gmin increment
Trying gmin =   1.9110E-12 Note: One successful gmin step
Trying gmin =   1.3824E-12 Note: One successful gmin step
Trying gmin =   1.0000E-12 Note: One successful gmin step
Warning: True gmin stepping failed
Note: Starting dynamic gmin stepping
Trying gmin =   1.0000E-03 Note: One successful gmin step
Trying gmin =   1.0000E-04 Note: One successful gmin step
Trying gmin =   1.0000E-05 Note: One successful gmin step
Trying gmin =   1.0000E-06 Note: One successful gmin step
Trying gmin =   1.0000E-07 Note: One successful gmin step
Trying gmin =   1.0000E-08 Note: One successful gmin step
Trying gmin =   1.0000E-09 Note: One successful gmin step
Trying gmin =   1.0000E-10 Note: One successful gmin step
Trying gmin =   1.0000E-11 Note: One successful gmin step
Trying gmin =   3.1623E-12 Note: One successful gmin step
Trying gmin =   1.0000E-12 Note: One successful gmin step
Warning: Dynamic gmin stepping failed
Note: Starting source stepping
Supplies reduced to   0.0000% Note: One successful source step
Supplies reduced to   0.1000% Note: One successful source step
Supplies reduced to   0.2000% Note: One successful source step
Supplies reduced to   0.3500% Note: One successful source step
Supplies reduced to   0.5750% Note: One successful source step
Supplies reduced to   0.9125% Note: One successful source step
Supplies reduced to   1.4188% Note: One successful source step
Supplies reduced to   2.1781% Note: One successful source step
Supplies reduced to   3.3172% Note: One successful source step
Supplies reduced to   5.0258% Note: One successful source step
Supplies reduced to   7.5887% Note: One successful source step
Supplies reduced to  11.4330% Note: One successful source step
Supplies reduced to  17.1995% Note: One successful source step
Supplies reduced to  25.8493% Note: One successful source step
Supplies reduced to  38.8239% Note: One successful source step
Supplies reduced to  58.2859% Note: One successful source step
Supplies reduced to  87.4788% Note: One successful source step
Supplies reduced to 100.0000% Supplies reduced to  87.4788% Note: One successful source step
Supplies reduced to  88.4788% Note: One successful source step
Supplies reduced to  89.4788% Note: One successful source step
Supplies reduced to  90.4788% Note: One successful source step
Supplies reduced to  91.9788% Note: One successful source step
Supplies reduced to  92.7288% Note: One successful source step
Supplies reduced to  93.4788% Note: One successful source step
Supplies reduced to  94.6038% Note: One successful source step
Supplies reduced to  95.7288% Note: One successful source step
Supplies reduced to  96.8538% Note: One successful source step
Supplies reduced to  98.5413% Note: One successful source step
Supplies reduced to  99.3850% Note: One successful source step
Supplies reduced to  99.8069% Note: One successful source step
Supplies reduced to 100.0000% Supplies reduced to  99.8069% Note: One successful source step
Supplies reduced to  99.8702% Note: One successful source step
Supplies reduced to  99.9018% Supplies reduced to  99.8702% Note: One successful source step
Supplies reduced to  99.8718% Note: One successful source step
Supplies reduced to  99.8726% Supplies reduced to  99.8718% Note: One successful source step
Supplies reduced to  99.8718% Note: One successful source step
Supplies reduced to  99.8719% Note: One successful source step
Supplies reduced to  99.8719% Note: One successful source step
Supplies reduced to  99.8719% Warning: source stepping failed
doAnalyses: Too many iterations without convergence

dc simulation(s) aborted

Error: measure  pm  (AT) : out of interval
 meas ac pm find p when vdb(ldo_out)=0 failed!

Doing analysis at TEMP = 85.000000 and TNOM = 27.000000


No. of Data Rows : 91
psrr100             =  -5.355416e+01
psrr100k            =  -2.555018e+01
Doing analysis at TEMP = 85.000000 and TNOM = 27.000000


No. of Data Rows : 86
temp_coeff = 6.463969e+01
Doing analysis at TEMP = 85.000000 and TNOM = 27.000000

vldo_sup_2          =  1.810257e+00
vldo_sup_2_8        =  1.812658e+00
line_reg = 3.001250e-03
Note: No ".plot", ".print", or ".fourier" lines; no simulations run
vin                 =  1.916109e+00
dropout = 1.521090e-01
