 Reference value :  0.00000e+00
No compatibility mode selected!


Circuit: * ldo netlist 

Doing analysis at TEMP = 85.000000 and TNOM = 27.000000


No. of Data Rows : 1
bg_out = 1.102543e+00
inn = 1.064729e+00
inp = 1.064669e+00
l1#branch = 0.000000e+00
ldo_out = 1.812826e+00
m.xm1.msky130_fd_pr__nfet_g5v0d10v5#body = 3.007613e-11
m.xm1.msky130_fd_pr__nfet_g5v0d10v5#dbody = 5.918257e-11
m.xm1.msky130_fd_pr__nfet_g5v0d10v5#sbody = 3.104582e-11
m.xm2.msky130_fd_pr__pfet_g5v0d10v5#body = 2.500000e+00
m.xm2.msky130_fd_pr__pfet_g5v0d10v5#dbody = 2.500000e+00
m.xm2.msky130_fd_pr__pfet_g5v0d10v5#sbody = 2.500000e+00
m.xm3.msky130_fd_pr__pfet_g5v0d10v5#body = 2.500000e+00
m.xm3.msky130_fd_pr__pfet_g5v0d10v5#dbody = 2.500000e+00
m.xm3.msky130_fd_pr__pfet_g5v0d10v5#sbody = 2.500000e+00
m.xm4.msky130_fd_pr__pfet_g5v0d10v5#body = 2.500000e+00
m.xm4.msky130_fd_pr__pfet_g5v0d10v5#dbody = 2.500000e+00
m.xm4.msky130_fd_pr__pfet_g5v0d10v5#sbody = 2.500000e+00
m.xm5.msky130_fd_pr__pfet_g5v0d10v5#body = 2.500000e+00
m.xm5.msky130_fd_pr__pfet_g5v0d10v5#dbody = 2.500000e+00
m.xm5.msky130_fd_pr__pfet_g5v0d10v5#sbody = 2.500000e+00
m.xm6.msky130_fd_pr__nfet_g5v0d10v5#body = 1.989358e-11
m.xm6.msky130_fd_pr__nfet_g5v0d10v5#dbody = 4.973383e-11
m.xm6.msky130_fd_pr__nfet_g5v0d10v5#sbody = 9.946911e-12
m.xm7.msky130_fd_pr__pfet_g5v0d10v5#body = 2.500000e+00
m.xm7.msky130_fd_pr__pfet_g5v0d10v5#dbody = 2.500000e+00
m.xm7.msky130_fd_pr__pfet_g5v0d10v5#sbody = 2.500000e+00
m.xm8.msky130_fd_pr__pfet_g5v0d10v5#body = 2.500000e+00
m.xm8.msky130_fd_pr__pfet_g5v0d10v5#dbody = 2.500000e+00
m.xm8.msky130_fd_pr__pfet_g5v0d10v5#sbody = 2.500000e+00
m.xm9.msky130_fd_pr__nfet_g5v0d10v5#body = 2.821125e-11
m.xm9.msky130_fd_pr__nfet_g5v0d10v5#dbody = 5.753657e-11
m.xm9.msky130_fd_pr__nfet_g5v0d10v5#sbody = 2.709715e-11
m.xm10.msky130_fd_pr__nfet_g5v0d10v5#body = 2.802660e-11
m.xm10.msky130_fd_pr__nfet_g5v0d10v5#dbody = 5.707494e-11
m.xm10.msky130_fd_pr__nfet_g5v0d10v5#sbody = 2.700482e-11
m.xm11.msky130_fd_pr__pfet_g5v0d10v5#body = 2.500000e+00
m.xm11.msky130_fd_pr__pfet_g5v0d10v5#dbody = 2.500000e+00
m.xm11.msky130_fd_pr__pfet_g5v0d10v5#sbody = 2.500000e+00
m.xm12.msky130_fd_pr__pfet_g5v0d10v5#body = 2.500000e+00
m.xm12.msky130_fd_pr__pfet_g5v0d10v5#dbody = 2.500000e+00
m.xm12.msky130_fd_pr__pfet_g5v0d10v5#sbody = 2.500000e+00
m.xm13.msky130_fd_pr__nfet_g5v0d10v5#body = 4.849666e-12
m.xm13.msky130_fd_pr__nfet_g5v0d10v5#dbody = 1.212409e-11
m.xm13.msky130_fd_pr__nfet_g5v0d10v5#sbody = 2.424902e-12
m.xm14.msky130_fd_pr__pfet_g5v0d10v5#body = 2.500000e+00
m.xm14.msky130_fd_pr__pfet_g5v0d10v5#dbody = 2.500000e+00
m.xm14.msky130_fd_pr__pfet_g5v0d10v5#sbody = 2.500000e+00
m.xm15.msky130_fd_pr__nfet_g5v0d10v5#body = 6.203429e-14
m.xm15.msky130_fd_pr__nfet_g5v0d10v5#dbody = 1.550827e-13
m.xm15.msky130_fd_pr__nfet_g5v0d10v5#sbody = 3.102012e-14
m.xm16.msky130_fd_pr__nfet_g5v0d10v5#body = 5.511358e-11
m.xm16.msky130_fd_pr__nfet_g5v0d10v5#dbody = 1.006113e-10
m.xm16.msky130_fd_pr__nfet_g5v0d10v5#sbody = 6.472948e-11
m.xm17.msky130_fd_pr__pfet_g5v0d10v5#body = 2.500000e+00
m.xm17.msky130_fd_pr__pfet_g5v0d10v5#dbody = 2.500000e+00
m.xm17.msky130_fd_pr__pfet_g5v0d10v5#sbody = 2.500000e+00
m.xm18.msky130_fd_pr__nfet_g5v0d10v5#body = 1.535025e-11
m.xm18.msky130_fd_pr__nfet_g5v0d10v5#dbody = 3.837553e-11
m.xm18.msky130_fd_pr__nfet_g5v0d10v5#sbody = 7.675205e-12
m.xm19.msky130_fd_pr__nfet_g5v0d10v5#body = 3.017245e-11
m.xm19.msky130_fd_pr__nfet_g5v0d10v5#dbody = 5.942336e-11
m.xm19.msky130_fd_pr__nfet_g5v0d10v5#sbody = 3.109398e-11
m.xm20.msky130_fd_pr__nfet_g5v0d10v5#body = 1.357434e-11
m.xm20.msky130_fd_pr__nfet_g5v0d10v5#dbody = 3.393578e-11
m.xm20.msky130_fd_pr__nfet_g5v0d10v5#sbody = 6.787253e-12
m.xm22.msky130_fd_pr__nfet_g5v0d10v5#body = 1.129489e-11
m.xm22.msky130_fd_pr__nfet_g5v0d10v5#dbody = 2.823712e-11
m.xm22.msky130_fd_pr__nfet_g5v0d10v5#sbody = 5.647560e-12
m.xm24.msky130_fd_pr__pfet_g5v0d10v5#body = 2.500000e+00
m.xm24.msky130_fd_pr__pfet_g5v0d10v5#dbody = 2.500000e+00
m.xm24.msky130_fd_pr__pfet_g5v0d10v5#sbody = 2.500000e+00
m.xm26.msky130_fd_pr__pfet_g5v0d10v5#body = 2.500000e+00
m.xm26.msky130_fd_pr__pfet_g5v0d10v5#dbody = 2.500000e+00
m.xm26.msky130_fd_pr__pfet_g5v0d10v5#sbody = 2.500000e+00
mir = 1.343601e+00
net1 = 6.313276e-01
net2 = 1.199340e-04
net3 = 7.051793e-01
net4 = 2.187182e-01
net5 = 1.351307e+00
net6 = 9.056594e-01
net7 = 7.051184e-01
net8 = 1.432109e+00
net9 = 1.446881e+00
net10 = 2.295950e-01
net11 = 1.069482e+00
net12 = 1.069482e+00
net13 = 0.000000e+00
out = 1.069482e+00
pos = 1.102695e+00
q.xq2.qsky130_fd_pr__pnp_05v5_w0p68l0p68#collcx = 3.101039e-03
q.xq3.qsky130_fd_pr__pnp_05v5_w0p68l0p68#collcx = 3.915866e-04
q.xq4.qsky130_fd_pr__pnp_05v5_w0p68l0p68#collcx = 3.915866e-04
q.xq8.qsky130_fd_pr__pnp_05v5_w0p68l0p68#collcx = 3.915866e-04
q.xq10.qsky130_fd_pr__pnp_05v5_w0p68l0p68#collcx = 3.915866e-04
q.xq12.qsky130_fd_pr__pnp_05v5_w0p68l0p68#collcx = 3.915866e-04
q.xq14.qsky130_fd_pr__pnp_05v5_w0p68l0p68#collcx = 3.915866e-04
q.xq16.qsky130_fd_pr__pnp_05v5_w0p68l0p68#collcx = 3.915866e-04
q.xq18.qsky130_fd_pr__pnp_05v5_w0p68l0p68#collcx = 3.915866e-04
vb = 9.274099e-01
vdd = 2.500000e+00
vs#branch = -1.00857e-01
vt#branch = 0.000000e+00
xc1.a = 0.000000e+00
xc1.b1 = 0.000000e+00
xc3.a = 1.069482e+00
xc3.b1 = 1.069482e+00
xr1.xsky130_fd_pr__res_xhigh_po_0p69.ra = 7.083680e-01
xr2.xsky130_fd_pr__res_xhigh_po_0p69.ra = 7.084289e-01
xr3.xsky130_fd_pr__res_xhigh_po_0p69.ra = 1.987431e-03
xr4.xsky130_fd_pr__res_xhigh_po_0p69.ra = 6.326272e-01
xr5.xsky130_fd_pr__res_xhigh_po_0p69.ra = 1.987250e-03
xr6.xsky130_fd_pr__res_xhigh_po_0p69.ra = 3.438096e-03
xr7.xsky130_fd_pr__res_xhigh_po_0p69.ra = 1.069482e+00
xr8.xsky130_fd_pr__res_xhigh_po_0p69.ra = 1.107916e+00
xr9.xsky130_fd_pr__res_xhigh_po_0p69.ra = 5.389525e-03
Doing analysis at TEMP = 85.000000 and TNOM = 27.000000


No. of Data Rows : 91
Error: no such vector PM
Note: Starting true gmin stepping
Trying gmin =   1.0000E-03 Note: One successful gmin step
Trying gmin =   1.0000E-04 Note: One successful gmin step
Trying gmin =   1.0000E-05 Note: One successful gmin step
Trying gmin =   1.0000E-06 Note: One successful gmin step
Trying gmin =   1.0000E-07 Note: One successful gmin step
Trying gmin =   1.0000E-08 Note: One successful gmin step
Trying gmin =   3.1623E-09 Warning: Further gmin increment
Trying gmin =   7.4989E-09 Note: One successful gmin step
Trying gmin =   4.8697E-09 Note: One successful gmin step
Trying gmin =   2.5483E-09 Warning: Further gmin increment
Trying gmin =   4.1418E-09 Note: One successful gmin step
Trying gmin =   3.2488E-09 Note: One successful gmin step
Trying gmin =   2.2569E-09 Note: One successful gmin step
Trying gmin =   1.3068E-09 Note: One successful gmin step
Trying gmin =   5.7578E-10 Note: One successful gmin step
Trying gmin =   1.6839E-10 Note: One successful gmin step
Trying gmin =   2.6633E-11 Note: One successful gmin step
Trying gmin =   2.6633E-12 Note: One successful gmin step
Trying gmin =   1.0000E-12 Note: One successful gmin step
Note: True gmin stepping completed
 Reference value :  1.14000e+00Note: Starting true gmin stepping
Trying gmin =   1.0000E-03 Note: One successful gmin step
Trying gmin =   1.0000E-04 Note: One successful gmin step
Trying gmin =   1.0000E-05 Note: One successful gmin step
Trying gmin =   1.0000E-06 Note: One successful gmin step
Trying gmin =   1.0000E-07 Note: One successful gmin step
Trying gmin =   1.0000E-08 Note: One successful gmin step
Trying gmin =   1.0000E-09 Warning: Further gmin increment
Trying gmin =   5.6234E-09 Note: One successful gmin step
Trying gmin =   2.3714E-09 Note: One successful gmin step
Trying gmin =   1.5399E-09 Note: One successful gmin step
Trying gmin =   8.0584E-10 Note: One successful gmin step
Trying gmin =   3.0505E-10 Note: One successful gmin step
Trying gmin =   7.1050E-11 Note: One successful gmin step
Trying gmin =   7.9863E-12 Note: One successful gmin step
Trying gmin =   1.0000E-12 Note: One successful gmin step
Note: True gmin stepping completed

Error: measure  pm  (AT) : out of interval
 meas ac pm find p when vdb(ldo_out)=0 failed!

Doing analysis at TEMP = 85.000000 and TNOM = 27.000000


No. of Data Rows : 91
psrr100             =  -5.419395e+01
psrr100k            =  -2.603723e+01
Doing analysis at TEMP = 85.000000 and TNOM = 27.000000


No. of Data Rows : 86
temp_coeff = 7.141063e+01
Doing analysis at TEMP = 85.000000 and TNOM = 27.000000


No. of Data Rows : 141
vldo_sup_2          =  1.809458e+00
vldo_sup_2_8        =  1.813320e+00
line_reg = 4.827500e-03
Note: No ".plot", ".print", or ".fourier" lines; no simulations run
vin                 =  1.948152e+00
dropout = 1.841520e-01
