 Reference value :  0.00000e+00
No compatibility mode selected!


Circuit: * ldo netlist 

Doing analysis at TEMP = 85.000000 and TNOM = 27.000000


No. of Data Rows : 1
bg_out = 1.099247e+00
inn = 1.061423e+00
inp = 1.061350e+00
l1#branch = 0.000000e+00
ldo_out = 1.807224e+00
m.xm1.msky130_fd_pr__nfet_g5v0d10v5#body = 2.763562e-11
m.xm1.msky130_fd_pr__nfet_g5v0d10v5#dbody = 5.310693e-11
m.xm1.msky130_fd_pr__nfet_g5v0d10v5#sbody = 2.979993e-11
m.xm2.msky130_fd_pr__pfet_g5v0d10v5#body = 2.300000e+00
m.xm2.msky130_fd_pr__pfet_g5v0d10v5#dbody = 2.300000e+00
m.xm2.msky130_fd_pr__pfet_g5v0d10v5#sbody = 2.300000e+00
m.xm3.msky130_fd_pr__pfet_g5v0d10v5#body = 2.300000e+00
m.xm3.msky130_fd_pr__pfet_g5v0d10v5#dbody = 2.300000e+00
m.xm3.msky130_fd_pr__pfet_g5v0d10v5#sbody = 2.300000e+00
m.xm4.msky130_fd_pr__pfet_g5v0d10v5#body = 2.300000e+00
m.xm4.msky130_fd_pr__pfet_g5v0d10v5#dbody = 2.300000e+00
m.xm4.msky130_fd_pr__pfet_g5v0d10v5#sbody = 2.300000e+00
m.xm5.msky130_fd_pr__pfet_g5v0d10v5#body = 2.300000e+00
m.xm5.msky130_fd_pr__pfet_g5v0d10v5#dbody = 2.300000e+00
m.xm5.msky130_fd_pr__pfet_g5v0d10v5#sbody = 2.300000e+00
m.xm6.msky130_fd_pr__nfet_g5v0d10v5#body = 1.983049e-11
m.xm6.msky130_fd_pr__nfet_g5v0d10v5#dbody = 4.957612e-11
m.xm6.msky130_fd_pr__nfet_g5v0d10v5#sbody = 9.915362e-12
m.xm7.msky130_fd_pr__pfet_g5v0d10v5#body = 2.300000e+00
m.xm7.msky130_fd_pr__pfet_g5v0d10v5#dbody = 2.300000e+00
m.xm7.msky130_fd_pr__pfet_g5v0d10v5#sbody = 2.300000e+00
m.xm8.msky130_fd_pr__pfet_g5v0d10v5#body = 2.300000e+00
m.xm8.msky130_fd_pr__pfet_g5v0d10v5#dbody = 2.300000e+00
m.xm8.msky130_fd_pr__pfet_g5v0d10v5#sbody = 2.300000e+00
m.xm9.msky130_fd_pr__nfet_g5v0d10v5#body = 2.575737e-11
m.xm9.msky130_fd_pr__nfet_g5v0d10v5#dbody = 5.142474e-11
m.xm9.msky130_fd_pr__nfet_g5v0d10v5#sbody = 2.584736e-11
m.xm10.msky130_fd_pr__nfet_g5v0d10v5#body = 2.544868e-11
m.xm10.msky130_fd_pr__nfet_g5v0d10v5#dbody = 5.065301e-11
m.xm10.msky130_fd_pr__nfet_g5v0d10v5#sbody = 2.569302e-11
m.xm11.msky130_fd_pr__pfet_g5v0d10v5#body = 2.300000e+00
m.xm11.msky130_fd_pr__pfet_g5v0d10v5#dbody = 2.300000e+00
m.xm11.msky130_fd_pr__pfet_g5v0d10v5#sbody = 2.300000e+00
m.xm12.msky130_fd_pr__pfet_g5v0d10v5#body = 2.300000e+00
m.xm12.msky130_fd_pr__pfet_g5v0d10v5#dbody = 2.300000e+00
m.xm12.msky130_fd_pr__pfet_g5v0d10v5#sbody = 2.300000e+00
m.xm13.msky130_fd_pr__nfet_g5v0d10v5#body = 4.838289e-12
m.xm13.msky130_fd_pr__nfet_g5v0d10v5#dbody = 1.209566e-11
m.xm13.msky130_fd_pr__nfet_g5v0d10v5#sbody = 2.419211e-12
m.xm14.msky130_fd_pr__pfet_g5v0d10v5#body = 2.300000e+00
m.xm14.msky130_fd_pr__pfet_g5v0d10v5#dbody = 2.300000e+00
m.xm14.msky130_fd_pr__pfet_g5v0d10v5#sbody = 2.300000e+00
m.xm15.msky130_fd_pr__nfet_g5v0d10v5#body = 2.898962e-14
m.xm15.msky130_fd_pr__nfet_g5v0d10v5#dbody = 7.247267e-14
m.xm15.msky130_fd_pr__nfet_g5v0d10v5#sbody = 1.449619e-14
m.xm16.msky130_fd_pr__nfet_g5v0d10v5#body = 5.257225e-11
m.xm16.msky130_fd_pr__nfet_g5v0d10v5#dbody = 9.434059e-11
m.xm16.msky130_fd_pr__nfet_g5v0d10v5#sbody = 6.337616e-11
m.xm17.msky130_fd_pr__pfet_g5v0d10v5#body = 2.300000e+00
m.xm17.msky130_fd_pr__pfet_g5v0d10v5#dbody = 2.300000e+00
m.xm17.msky130_fd_pr__pfet_g5v0d10v5#sbody = 2.300000e+00
m.xm18.msky130_fd_pr__nfet_g5v0d10v5#body = 2.255259e-11
m.xm18.msky130_fd_pr__nfet_g5v0d10v5#dbody = 5.621868e-11
m.xm18.msky130_fd_pr__nfet_g5v0d10v5#sbody = 1.127638e-11
m.xm19.msky130_fd_pr__nfet_g5v0d10v5#body = 2.774078e-11
m.xm19.msky130_fd_pr__nfet_g5v0d10v5#dbody = 5.336983e-11
m.xm19.msky130_fd_pr__nfet_g5v0d10v5#sbody = 2.985251e-11
m.xm20.msky130_fd_pr__nfet_g5v0d10v5#body = 1.350877e-11
m.xm20.msky130_fd_pr__nfet_g5v0d10v5#dbody = 3.377185e-11
m.xm20.msky130_fd_pr__nfet_g5v0d10v5#sbody = 6.754463e-12
m.xm22.msky130_fd_pr__nfet_g5v0d10v5#body = 1.128194e-11
m.xm22.msky130_fd_pr__nfet_g5v0d10v5#dbody = 2.820473e-11
m.xm22.msky130_fd_pr__nfet_g5v0d10v5#sbody = 5.641076e-12
m.xm24.msky130_fd_pr__pfet_g5v0d10v5#body = 2.300000e+00
m.xm24.msky130_fd_pr__pfet_g5v0d10v5#dbody = 2.300000e+00
m.xm24.msky130_fd_pr__pfet_g5v0d10v5#sbody = 2.300000e+00
m.xm26.msky130_fd_pr__pfet_g5v0d10v5#body = 2.300000e+00
m.xm26.msky130_fd_pr__pfet_g5v0d10v5#dbody = 2.300000e+00
m.xm26.msky130_fd_pr__pfet_g5v0d10v5#sbody = 2.300000e+00
mir = 1.149386e+00
net1 = 6.298054e-01
net2 = 5.599453e-05
net3 = 7.033550e-01
net4 = 2.177110e-01
net5 = 1.157799e+00
net6 = 9.006126e-01
net7 = 7.032813e-01
net8 = 1.226790e+00
net9 = 1.251486e+00
net10 = 2.286893e-01
net11 = 1.639161e+00
net12 = 1.639161e+00
net13 = 0.000000e+00
out = 1.639161e+00
pos = 1.099522e+00
q.xq2.qsky130_fd_pr__pnp_05v5_w0p68l0p68#collcx = 2.962998e-03
q.xq3.qsky130_fd_pr__pnp_05v5_w0p68l0p68#collcx = 3.739892e-04
q.xq4.qsky130_fd_pr__pnp_05v5_w0p68l0p68#collcx = 3.739892e-04
q.xq8.qsky130_fd_pr__pnp_05v5_w0p68l0p68#collcx = 3.739892e-04
q.xq10.qsky130_fd_pr__pnp_05v5_w0p68l0p68#collcx = 3.739892e-04
q.xq12.qsky130_fd_pr__pnp_05v5_w0p68l0p68#collcx = 3.739892e-04
q.xq14.qsky130_fd_pr__pnp_05v5_w0p68l0p68#collcx = 3.739892e-04
q.xq16.qsky130_fd_pr__pnp_05v5_w0p68l0p68#collcx = 3.739892e-04
q.xq18.qsky130_fd_pr__pnp_05v5_w0p68l0p68#collcx = 3.739892e-04
vb = 9.221642e-01
vdd = 2.300000e+00
vs#branch = -1.88888e-04
vt#branch = 0.000000e+00
xc1.a = 0.000000e+00
xc1.b1 = 0.000000e+00
xc3.a = 1.639161e+00
xc3.b1 = 1.639161e+00
xr1.xsky130_fd_pr__res_xhigh_po_0p69.ra = 7.092322e-01
xr2.xsky130_fd_pr__res_xhigh_po_0p69.ra = 7.093058e-01
xr3.xsky130_fd_pr__res_xhigh_po_0p69.ra = 3.640441e-03
xr4.xsky130_fd_pr__res_xhigh_po_0p69.ra = 6.321844e-01
xr5.xsky130_fd_pr__res_xhigh_po_0p69.ra = 3.640038e-03
xr6.xsky130_fd_pr__res_xhigh_po_0p69.ra = 6.294261e-03
xr7.xsky130_fd_pr__res_xhigh_po_0p69.ra = 1.639161e+00
xr8.xsky130_fd_pr__res_xhigh_po_0p69.ra = 1.109084e+00
xr9.xsky130_fd_pr__res_xhigh_po_0p69.ra = 9.871389e-03
Doing analysis at TEMP = 85.000000 and TNOM = 27.000000


No. of Data Rows : 91
Note: Starting true gmin stepping
Trying gmin =   1.0000E-03 Note: One successful gmin step
Trying gmin =   1.0000E-04 Note: One successful gmin step
Trying gmin =   1.0000E-05 Note: One successful gmin step
Trying gmin =   3.1623E-06 Note: One successful gmin step
Trying gmin =   5.6234E-07 Note: One successful gmin step
Trying gmin =   5.6234E-08 Warning: Further gmin increment
Trying gmin =   3.1623E-07 Note: One successful gmin step
Trying gmin =   1.3335E-07 Note: One successful gmin step
Trying gmin =   3.6517E-08 Warning: Further gmin increment
Trying gmin =   9.6466E-08 Warning: Further gmin increment
Trying gmin =   1.2298E-07 Warning: Further gmin increment
Trying gmin =   1.3068E-07 Note: One successful gmin step
Trying gmin =   1.2677E-07 Warning: Further gmin increment
Trying gmin =   1.2969E-07 Note: One successful gmin step
Trying gmin =   1.2822E-07 Note: One successful gmin step
Trying gmin =   1.2605E-07 Note: One successful gmin step
Trying gmin =   1.2498E-07 Note: One successful gmin step
Trying gmin =   1.2339E-07 Note: One successful gmin step
Trying gmin =   1.2104E-07 Note: One successful gmin step
Trying gmin =   1.1761E-07 Note: One successful gmin step
Trying gmin =   1.1263E-07 Note: One successful gmin step
Trying gmin =   1.0556E-07 Note: One successful gmin step
Trying gmin =   9.5778E-08 Note: One successful gmin step
Trying gmin =   8.2778E-08 Note: One successful gmin step
Trying gmin =   6.6510E-08 Warning: Further gmin increment
Trying gmin =   7.8371E-08 Note: One successful gmin step
Trying gmin =   7.2197E-08 Warning: Further gmin increment
Trying gmin =   7.6780E-08 Note: One successful gmin step
Trying gmin =   7.5221E-08 Note: One successful gmin step
Trying gmin =   7.2941E-08 Note: One successful gmin step
Trying gmin =   6.9651E-08 Note: One successful gmin step
Trying gmin =   6.4992E-08 Note: One successful gmin step
Trying gmin =   5.8581E-08 Note: One successful gmin step
Trying gmin =   5.0131E-08 Note: One successful gmin step
Trying gmin =   3.9685E-08 Note: One successful gmin step
Trying gmin =   2.7952E-08 Note: One successful gmin step
Trying gmin =   1.6523E-08 Note: One successful gmin step
Trying gmin =   7.5092E-09 Note: One successful gmin step
Trying gmin =   2.3007E-09 Note: One successful gmin step
Trying gmin =   3.9017E-10 Note: One successful gmin step
Trying gmin =   3.9017E-11 Note: One successful gmin step
Trying gmin =   3.9017E-12 Note: One successful gmin step
Trying gmin =   1.0000E-12 Note: One successful gmin step
Note: True gmin stepping completed
 Reference value :  2.80000e+00Note: Starting true gmin stepping
Trying gmin =   1.0000E-03 Note: One successful gmin step
Trying gmin =   1.0000E-04 Note: One successful gmin step
Trying gmin =   1.0000E-05 Note: One successful gmin step
Trying gmin =   1.0000E-06 Note: One successful gmin step
Trying gmin =   1.0000E-07 Note: One successful gmin step
Trying gmin =   1.0000E-08 Note: One successful gmin step
Trying gmin =   3.1623E-09 Note: One successful gmin step
Trying gmin =   5.6234E-10 Note: One successful gmin step
Trying gmin =   5.6234E-11 Note: One successful gmin step
Trying gmin =   5.6234E-12 Note: One successful gmin step
Trying gmin =   1.0000E-12 Note: One successful gmin step
Note: True gmin stepping completed
Note: Starting true gmin stepping
Trying gmin =   1.0000E-03 Note: One successful gmin step
Trying gmin =   1.0000E-04 Note: One successful gmin step
Trying gmin =   1.0000E-05 Note: One successful gmin step
Trying gmin =   1.0000E-06 Note: One successful gmin step
Trying gmin =   1.0000E-07 Note: One successful gmin step
Trying gmin =   1.0000E-08 Warning: Further gmin increment
Trying gmin =   5.6234E-08 Note: One successful gmin step
Trying gmin =   2.3714E-08 Note: One successful gmin step
Trying gmin =   6.4938E-09 Warning: Further gmin increment
Trying gmin =   1.7154E-08 Note: One successful gmin step
Trying gmin =   1.0554E-08 Note: One successful gmin step
Trying gmin =   5.0937E-09 Note: One successful gmin step
Trying gmin =   1.7077E-09 Note: One successful gmin step
Trying gmin =   3.3152E-10 Note: One successful gmin step
Trying gmin =   3.3152E-11 Note: One successful gmin step
Trying gmin =   3.3152E-12 Note: One successful gmin step
Trying gmin =   1.0000E-12 Note: One successful gmin step
Note: True gmin stepping completed
 Reference value :  1.20000e+00Note: Starting true gmin stepping
Trying gmin =   1.0000E-03 Note: One successful gmin step
Trying gmin =   1.0000E-04 Note: One successful gmin step
Trying gmin =   1.0000E-05 Note: One successful gmin step
Trying gmin =   1.0000E-06 Note: One successful gmin step
Trying gmin =   1.0000E-07 Note: One successful gmin step
Trying gmin =   1.0000E-08 Warning: Further gmin increment
Trying gmin =   5.6234E-08 Note: One successful gmin step
Trying gmin =   2.3714E-08 Note: One successful gmin step
Trying gmin =   6.4938E-09 Warning: Further gmin increment
Trying gmin =   1.7154E-08 Note: One successful gmin step
Trying gmin =   1.0554E-08 Note: One successful gmin step
Trying gmin =   5.0937E-09 Warning: Further gmin increment
Trying gmin =   8.7970E-09 Note: One successful gmin step
Trying gmin =   6.6940E-09 Note: One successful gmin step
Trying gmin =   4.4433E-09 Note: One successful gmin step
Trying gmin =   2.4029E-09 Note: One successful gmin step
Trying gmin =   9.5562E-10 Note: One successful gmin step
Trying gmin =   2.3967E-10 Note: One successful gmin step
Trying gmin =   3.0102E-11 Note: One successful gmin step
Trying gmin =   3.0102E-12 Note: One successful gmin step
Trying gmin =   1.0000E-12 Note: One successful gmin step
Note: True gmin stepping completed
 Reference value :  5.80000e-01pm                  =  6.485872e+01
Doing analysis at TEMP = 85.000000 and TNOM = 27.000000


No. of Data Rows : 91
psrr100             =  -5.242816e+01
psrr100k            =  -2.566982e+01
Doing analysis at TEMP = 85.000000 and TNOM = 27.000000


No. of Data Rows : 86
temp_coeff = 4.085467e+01
Doing analysis at TEMP = 85.000000 and TNOM = 27.000000


No. of Data Rows : 141
vldo_sup_2          =  1.806228e+00
vldo_sup_2_8        =  1.808068e+00
line_reg = 2.300000e-03
Note: No ".plot", ".print", or ".fourier" lines; no simulations run
vin                 =  1.764139e+00
dropout = 1.390000e-04
