 Reference value :  0.00000e+00
No compatibility mode selected!


Circuit: * ldo netlist 

Doing analysis at TEMP = 27.000000 and TNOM = 27.000000


No. of Data Rows : 1
bg_out = 1.192584e+00
inn = 1.222500e+00
inp = 1.222479e+00
l1#branch = 0.000000e+00
ldo_out = 1.793344e+00
m.xm1.msky130_fd_pr__nfet_g5v0d10v5#body = 1.665057e-11
m.xm1.msky130_fd_pr__nfet_g5v0d10v5#dbody = 3.311388e-11
m.xm1.msky130_fd_pr__nfet_g5v0d10v5#sbody = 1.683784e-11
m.xm2.msky130_fd_pr__pfet_g5v0d10v5#body = 2.300000e+00
m.xm2.msky130_fd_pr__pfet_g5v0d10v5#dbody = 2.300000e+00
m.xm2.msky130_fd_pr__pfet_g5v0d10v5#sbody = 2.300000e+00
m.xm3.msky130_fd_pr__pfet_g5v0d10v5#body = 2.300000e+00
m.xm3.msky130_fd_pr__pfet_g5v0d10v5#dbody = 2.300000e+00
m.xm3.msky130_fd_pr__pfet_g5v0d10v5#sbody = 2.300000e+00
m.xm4.msky130_fd_pr__pfet_g5v0d10v5#body = 2.300000e+00
m.xm4.msky130_fd_pr__pfet_g5v0d10v5#dbody = 2.300000e+00
m.xm4.msky130_fd_pr__pfet_g5v0d10v5#sbody = 2.300000e+00
m.xm5.msky130_fd_pr__pfet_g5v0d10v5#body = 2.300000e+00
m.xm5.msky130_fd_pr__pfet_g5v0d10v5#dbody = 2.300000e+00
m.xm5.msky130_fd_pr__pfet_g5v0d10v5#sbody = 2.300000e+00
m.xm6.msky130_fd_pr__nfet_g5v0d10v5#body = 1.107162e-11
m.xm6.msky130_fd_pr__nfet_g5v0d10v5#dbody = 2.767903e-11
m.xm6.msky130_fd_pr__nfet_g5v0d10v5#sbody = 5.535812e-12
m.xm7.msky130_fd_pr__pfet_g5v0d10v5#body = 2.300000e+00
m.xm7.msky130_fd_pr__pfet_g5v0d10v5#dbody = 2.300000e+00
m.xm7.msky130_fd_pr__pfet_g5v0d10v5#sbody = 2.300000e+00
m.xm8.msky130_fd_pr__pfet_g5v0d10v5#body = 2.300000e+00
m.xm8.msky130_fd_pr__pfet_g5v0d10v5#dbody = 2.300000e+00
m.xm8.msky130_fd_pr__pfet_g5v0d10v5#sbody = 2.300000e+00
m.xm9.msky130_fd_pr__nfet_g5v0d10v5#body = 1.731331e-11
m.xm9.msky130_fd_pr__nfet_g5v0d10v5#dbody = 3.562943e-11
m.xm9.msky130_fd_pr__nfet_g5v0d10v5#sbody = 1.631049e-11
m.xm10.msky130_fd_pr__nfet_g5v0d10v5#body = 1.711394e-11
m.xm10.msky130_fd_pr__nfet_g5v0d10v5#dbody = 3.513101e-11
m.xm10.msky130_fd_pr__nfet_g5v0d10v5#sbody = 1.621081e-11
m.xm11.msky130_fd_pr__pfet_g5v0d10v5#body = 2.300000e+00
m.xm11.msky130_fd_pr__pfet_g5v0d10v5#dbody = 2.300000e+00
m.xm11.msky130_fd_pr__pfet_g5v0d10v5#sbody = 2.300000e+00
m.xm12.msky130_fd_pr__pfet_g5v0d10v5#body = 2.300000e+00
m.xm12.msky130_fd_pr__pfet_g5v0d10v5#dbody = 2.300000e+00
m.xm12.msky130_fd_pr__pfet_g5v0d10v5#sbody = 2.300000e+00
m.xm13.msky130_fd_pr__nfet_g5v0d10v5#body = 3.825561e-12
m.xm13.msky130_fd_pr__nfet_g5v0d10v5#dbody = 9.563892e-12
m.xm13.msky130_fd_pr__nfet_g5v0d10v5#sbody = 1.912791e-12
m.xm14.msky130_fd_pr__pfet_g5v0d10v5#body = 2.300000e+00
m.xm14.msky130_fd_pr__pfet_g5v0d10v5#dbody = 2.300000e+00
m.xm14.msky130_fd_pr__pfet_g5v0d10v5#sbody = 2.300000e+00
m.xm15.msky130_fd_pr__nfet_g5v0d10v5#body = 4.530322e-17
m.xm15.msky130_fd_pr__nfet_g5v0d10v5#dbody = 1.132537e-16
m.xm15.msky130_fd_pr__nfet_g5v0d10v5#sbody = 2.265595e-17
m.xm16.msky130_fd_pr__nfet_g5v0d10v5#body = 4.403988e-11
m.xm16.msky130_fd_pr__nfet_g5v0d10v5#dbody = 7.952857e-11
m.xm16.msky130_fd_pr__nfet_g5v0d10v5#sbody = 5.259106e-11
m.xm17.msky130_fd_pr__pfet_g5v0d10v5#body = 2.300000e+00
m.xm17.msky130_fd_pr__pfet_g5v0d10v5#dbody = 2.300000e+00
m.xm17.msky130_fd_pr__pfet_g5v0d10v5#sbody = 2.300000e+00
m.xm18.msky130_fd_pr__nfet_g5v0d10v5#body = 1.746529e-11
m.xm18.msky130_fd_pr__nfet_g5v0d10v5#dbody = 4.366114e-11
m.xm18.msky130_fd_pr__nfet_g5v0d10v5#sbody = 8.732656e-12
m.xm19.msky130_fd_pr__nfet_g5v0d10v5#body = 1.667823e-11
m.xm19.msky130_fd_pr__nfet_g5v0d10v5#dbody = 3.318301e-11
m.xm19.msky130_fd_pr__nfet_g5v0d10v5#sbody = 1.685167e-11
m.xm20.msky130_fd_pr__nfet_g5v0d10v5#body = 1.098876e-11
m.xm20.msky130_fd_pr__nfet_g5v0d10v5#dbody = 2.747188e-11
m.xm20.msky130_fd_pr__nfet_g5v0d10v5#sbody = 5.494391e-12
m.xm22.msky130_fd_pr__nfet_g5v0d10v5#body = 4.258990e-12
m.xm22.msky130_fd_pr__nfet_g5v0d10v5#dbody = 1.064747e-11
m.xm22.msky130_fd_pr__nfet_g5v0d10v5#sbody = 2.129500e-12
m.xm24.msky130_fd_pr__pfet_g5v0d10v5#body = 2.300000e+00
m.xm24.msky130_fd_pr__pfet_g5v0d10v5#dbody = 2.300000e+00
m.xm24.msky130_fd_pr__pfet_g5v0d10v5#sbody = 2.300000e+00
m.xm26.msky130_fd_pr__pfet_g5v0d10v5#body = 2.300000e+00
m.xm26.msky130_fd_pr__pfet_g5v0d10v5#dbody = 2.300000e+00
m.xm26.msky130_fd_pr__pfet_g5v0d10v5#sbody = 2.300000e+00
mir = 9.911986e-01
net1 = 7.251336e-01
net2 = 3.486009e-06
net3 = 7.846838e-01
net4 = 3.401569e-01
net5 = 9.934108e-01
net6 = 8.851669e-01
net7 = 7.846629e-01
net8 = 1.062725e+00
net9 = 1.078674e+00
net10 = 3.059168e-01
net11 = 1.397012e+00
net12 = 1.397012e+00
net13 = 0.000000e+00
out = 1.397012e+00
pos = 1.192752e+00
q.xq2.qsky130_fd_pr__pnp_05v5_w0p68l0p68#collcx = 2.094189e-03
q.xq3.qsky130_fd_pr__pnp_05v5_w0p68l0p68#collcx = 2.637076e-04
q.xq4.qsky130_fd_pr__pnp_05v5_w0p68l0p68#collcx = 2.637076e-04
q.xq8.qsky130_fd_pr__pnp_05v5_w0p68l0p68#collcx = 2.637076e-04
q.xq10.qsky130_fd_pr__pnp_05v5_w0p68l0p68#collcx = 2.637076e-04
q.xq12.qsky130_fd_pr__pnp_05v5_w0p68l0p68#collcx = 2.637076e-04
q.xq14.qsky130_fd_pr__pnp_05v5_w0p68l0p68#collcx = 2.637076e-04
q.xq16.qsky130_fd_pr__pnp_05v5_w0p68l0p68#collcx = 2.637076e-04
q.xq18.qsky130_fd_pr__pnp_05v5_w0p68l0p68#collcx = 2.637076e-04
vb = 8.789725e-01
vdd = 2.300000e+00
vs#branch = -1.71745e-04
vt#branch = 0.000000e+00
xc1.a = 0.000000e+00
xc1.b1 = 0.000000e+00
xc3.a = 1.397012e+00
xc3.b1 = 1.397012e+00
xr1.xsky130_fd_pr__res_xhigh_po_0p69.ra = 7.922107e-01
xr2.xsky130_fd_pr__res_xhigh_po_0p69.ra = 7.922316e-01
xr3.xsky130_fd_pr__res_xhigh_po_0p69.ra = 5.108794e-03
xr4.xsky130_fd_pr__res_xhigh_po_0p69.ra = 7.276713e-01
xr5.xsky130_fd_pr__res_xhigh_po_0p69.ra = 5.108649e-03
xr6.xsky130_fd_pr__res_xhigh_po_0p69.ra = 8.022752e-03
xr7.xsky130_fd_pr__res_xhigh_po_0p69.ra = 1.397012e+00
xr8.xsky130_fd_pr__res_xhigh_po_0p69.ra = 1.206101e+00
xr9.xsky130_fd_pr__res_xhigh_po_0p69.ra = 1.399905e-02
Doing analysis at TEMP = 27.000000 and TNOM = 27.000000


No. of Data Rows : 91
Note: Starting true gmin stepping
Trying gmin =   1.0000E-03 Note: One successful gmin step
Trying gmin =   1.0000E-04 Note: One successful gmin step
Trying gmin =   1.0000E-05 Note: One successful gmin step
Trying gmin =   1.0000E-06 Note: One successful gmin step
Trying gmin =   1.0000E-07 Warning: Further gmin increment
Trying gmin =   5.6234E-07 Note: One successful gmin step
Trying gmin =   2.3714E-07 Note: One successful gmin step
Trying gmin =   6.4938E-08 Note: One successful gmin step
Trying gmin =   9.3057E-09 Warning: Further gmin increment
Trying gmin =   3.9954E-08 Warning: Further gmin increment
Trying gmin =   5.7513E-08 Note: One successful gmin step
Trying gmin =   4.7936E-08 Note: One successful gmin step
Trying gmin =   3.6476E-08 Note: One successful gmin step
Trying gmin =   2.4212E-08 Note: One successful gmin step
Trying gmin =   1.3094E-08 Note: One successful gmin step
Trying gmin =   5.2073E-09 Note: One successful gmin step
Trying gmin =   1.3060E-09 Note: One successful gmin step
Trying gmin =   1.6403E-10 Note: One successful gmin step
Trying gmin =   1.6403E-11 Note: One successful gmin step
Trying gmin =   1.6403E-12 Note: One successful gmin step
Trying gmin =   1.0000E-12 Note: One successful gmin step
Note: True gmin stepping completed
 Reference value :  1.56000e+00Note: Starting true gmin stepping
Trying gmin =   1.0000E-03 Note: One successful gmin step
Trying gmin =   1.0000E-04 Note: One successful gmin step
Trying gmin =   1.0000E-05 Note: One successful gmin step
Trying gmin =   1.0000E-06 Note: One successful gmin step
Trying gmin =   1.0000E-07 Warning: Further gmin increment
Trying gmin =   5.6234E-07 Note: One successful gmin step
Trying gmin =   2.3714E-07 Note: One successful gmin step
Trying gmin =   6.4938E-08 Note: One successful gmin step
Trying gmin =   9.3057E-09 Warning: Further gmin increment
Trying gmin =   3.9954E-08 Note: One successful gmin step
Trying gmin =   3.1340E-08 Note: One successful gmin step
Trying gmin =   2.1772E-08 Note: One successful gmin step
Trying gmin =   1.2606E-08 Note: One successful gmin step
Trying gmin =   5.5543E-09 Note: One successful gmin step
Trying gmin =   1.6244E-09 Note: One successful gmin step
Trying gmin =   2.5692E-10 Note: One successful gmin step
Trying gmin =   2.5692E-11 Note: One successful gmin step
Trying gmin =   2.5692E-12 Note: One successful gmin step
Trying gmin =   1.0000E-12 Note: One successful gmin step
Note: True gmin stepping completed
 Reference value :  3.20000e-01pm                  =  5.188819e+01
Doing analysis at TEMP = 27.000000 and TNOM = 27.000000


No. of Data Rows : 91
psrr100             =  -8.563601e+01
psrr100k            =  -2.567348e+01
Doing analysis at TEMP = 27.000000 and TNOM = 27.000000


No. of Data Rows : 86
temp_coeff = 1.054135e+02
Doing analysis at TEMP = 27.000000 and TNOM = 27.000000


No. of Data Rows : 141
vldo_sup_2          =  1.793209e+00
vldo_sup_2_8        =  1.793327e+00
line_reg = 1.475000e-04
Note: No ".plot", ".print", or ".fourier" lines; no simulations run
vin                 =  1.764162e+00
dropout = 1.620000e-04
