 Reference value :  0.00000e+00
No compatibility mode selected!


Circuit: * ldo netlist 

Doing analysis at TEMP = 27.000000 and TNOM = 27.000000


No. of Data Rows : 1
bg_out = 1.194130e+00
inn = 1.224901e+00
inp = 1.224880e+00
l1#branch = 5.551115e-17
ldo_out = 1.796283e+00
m.xm1.msky130_fd_pr__nfet_g5v0d10v5#body = 1.657923e-11
m.xm1.msky130_fd_pr__nfet_g5v0d10v5#dbody = 3.293394e-11
m.xm1.msky130_fd_pr__nfet_g5v0d10v5#sbody = 1.680376e-11
m.xm2.msky130_fd_pr__pfet_g5v0d10v5#body = 2.300000e+00
m.xm2.msky130_fd_pr__pfet_g5v0d10v5#dbody = 2.300000e+00
m.xm2.msky130_fd_pr__pfet_g5v0d10v5#sbody = 2.300000e+00
m.xm3.msky130_fd_pr__pfet_g5v0d10v5#body = 2.300000e+00
m.xm3.msky130_fd_pr__pfet_g5v0d10v5#dbody = 2.300000e+00
m.xm3.msky130_fd_pr__pfet_g5v0d10v5#sbody = 2.300000e+00
m.xm4.msky130_fd_pr__pfet_g5v0d10v5#body = 2.300000e+00
m.xm4.msky130_fd_pr__pfet_g5v0d10v5#dbody = 2.300000e+00
m.xm4.msky130_fd_pr__pfet_g5v0d10v5#sbody = 2.300000e+00
m.xm5.msky130_fd_pr__pfet_g5v0d10v5#body = 2.300000e+00
m.xm5.msky130_fd_pr__pfet_g5v0d10v5#dbody = 2.300000e+00
m.xm5.msky130_fd_pr__pfet_g5v0d10v5#sbody = 2.300000e+00
m.xm6.msky130_fd_pr__nfet_g5v0d10v5#body = 1.111766e-11
m.xm6.msky130_fd_pr__nfet_g5v0d10v5#dbody = 2.779414e-11
m.xm6.msky130_fd_pr__nfet_g5v0d10v5#sbody = 5.558834e-12
m.xm7.msky130_fd_pr__pfet_g5v0d10v5#body = 2.300000e+00
m.xm7.msky130_fd_pr__pfet_g5v0d10v5#dbody = 2.300000e+00
m.xm7.msky130_fd_pr__pfet_g5v0d10v5#sbody = 2.300000e+00
m.xm8.msky130_fd_pr__pfet_g5v0d10v5#body = 2.300000e+00
m.xm8.msky130_fd_pr__pfet_g5v0d10v5#dbody = 2.300000e+00
m.xm8.msky130_fd_pr__pfet_g5v0d10v5#sbody = 2.300000e+00
m.xm9.msky130_fd_pr__nfet_g5v0d10v5#body = 1.725583e-11
m.xm9.msky130_fd_pr__nfet_g5v0d10v5#dbody = 3.550201e-11
m.xm9.msky130_fd_pr__nfet_g5v0d10v5#sbody = 1.626549e-11
m.xm10.msky130_fd_pr__nfet_g5v0d10v5#body = 1.705214e-11
m.xm10.msky130_fd_pr__nfet_g5v0d10v5#dbody = 3.499277e-11
m.xm10.msky130_fd_pr__nfet_g5v0d10v5#sbody = 1.616364e-11
m.xm11.msky130_fd_pr__pfet_g5v0d10v5#body = 2.300000e+00
m.xm11.msky130_fd_pr__pfet_g5v0d10v5#dbody = 2.300000e+00
m.xm11.msky130_fd_pr__pfet_g5v0d10v5#sbody = 2.300000e+00
m.xm12.msky130_fd_pr__pfet_g5v0d10v5#body = 2.300000e+00
m.xm12.msky130_fd_pr__pfet_g5v0d10v5#dbody = 2.300000e+00
m.xm12.msky130_fd_pr__pfet_g5v0d10v5#sbody = 2.300000e+00
m.xm13.msky130_fd_pr__nfet_g5v0d10v5#body = 3.817427e-12
m.xm13.msky130_fd_pr__nfet_g5v0d10v5#dbody = 9.543555e-12
m.xm13.msky130_fd_pr__nfet_g5v0d10v5#sbody = 1.908724e-12
m.xm14.msky130_fd_pr__pfet_g5v0d10v5#body = 2.300000e+00
m.xm14.msky130_fd_pr__pfet_g5v0d10v5#dbody = 2.300000e+00
m.xm14.msky130_fd_pr__pfet_g5v0d10v5#sbody = 2.300000e+00
m.xm15.msky130_fd_pr__nfet_g5v0d10v5#body = 4.437594e-17
m.xm15.msky130_fd_pr__nfet_g5v0d10v5#dbody = 1.109356e-16
m.xm15.msky130_fd_pr__nfet_g5v0d10v5#sbody = 2.219223e-17
m.xm16.msky130_fd_pr__nfet_g5v0d10v5#body = 4.406990e-11
m.xm16.msky130_fd_pr__nfet_g5v0d10v5#dbody = 7.954358e-11
m.xm16.msky130_fd_pr__nfet_g5v0d10v5#sbody = 5.266612e-11
m.xm17.msky130_fd_pr__pfet_g5v0d10v5#body = 2.300000e+00
m.xm17.msky130_fd_pr__pfet_g5v0d10v5#dbody = 2.300000e+00
m.xm17.msky130_fd_pr__pfet_g5v0d10v5#sbody = 2.300000e+00
m.xm18.msky130_fd_pr__nfet_g5v0d10v5#body = 1.745580e-11
m.xm18.msky130_fd_pr__nfet_g5v0d10v5#dbody = 4.363748e-11
m.xm18.msky130_fd_pr__nfet_g5v0d10v5#sbody = 8.727914e-12
m.xm19.msky130_fd_pr__nfet_g5v0d10v5#body = 1.660864e-11
m.xm19.msky130_fd_pr__nfet_g5v0d10v5#dbody = 3.300745e-11
m.xm19.msky130_fd_pr__nfet_g5v0d10v5#sbody = 1.681846e-11
m.xm20.msky130_fd_pr__nfet_g5v0d10v5#body = 1.103401e-11
m.xm20.msky130_fd_pr__nfet_g5v0d10v5#dbody = 2.758501e-11
m.xm20.msky130_fd_pr__nfet_g5v0d10v5#sbody = 5.517017e-12
m.xm22.msky130_fd_pr__nfet_g5v0d10v5#body = 4.259782e-12
m.xm22.msky130_fd_pr__nfet_g5v0d10v5#dbody = 1.064945e-11
m.xm22.msky130_fd_pr__nfet_g5v0d10v5#sbody = 2.129896e-12
m.xm24.msky130_fd_pr__pfet_g5v0d10v5#body = 2.300000e+00
m.xm24.msky130_fd_pr__pfet_g5v0d10v5#dbody = 2.300000e+00
m.xm24.msky130_fd_pr__pfet_g5v0d10v5#sbody = 2.300000e+00
m.xm26.msky130_fd_pr__pfet_g5v0d10v5#body = 2.300000e+00
m.xm26.msky130_fd_pr__pfet_g5v0d10v5#dbody = 2.300000e+00
m.xm26.msky130_fd_pr__pfet_g5v0d10v5#sbody = 2.300000e+00
mir = 9.854280e-01
net1 = 7.262720e-01
net2 = 3.414656e-06
net3 = 7.859738e-01
net4 = 3.402203e-01
net5 = 9.877801e-01
net6 = 8.888502e-01
net7 = 7.859514e-01
net8 = 1.058431e+00
net9 = 1.074727e+00
net10 = 3.052660e-01
net11 = 1.396256e+00
net12 = 1.396256e+00
net13 = 0.000000e+00
out = 1.396256e+00
pos = 1.194302e+00
q.xq2.qsky130_fd_pr__pnp_05v5_w0p68l0p68#collcx = 2.182200e-03
q.xq3.qsky130_fd_pr__pnp_05v5_w0p68l0p68#collcx = 2.748939e-04
q.xq4.qsky130_fd_pr__pnp_05v5_w0p68l0p68#collcx = 2.748939e-04
q.xq8.qsky130_fd_pr__pnp_05v5_w0p68l0p68#collcx = 2.748939e-04
q.xq10.qsky130_fd_pr__pnp_05v5_w0p68l0p68#collcx = 2.748939e-04
q.xq12.qsky130_fd_pr__pnp_05v5_w0p68l0p68#collcx = 2.748939e-04
q.xq14.qsky130_fd_pr__pnp_05v5_w0p68l0p68#collcx = 2.748939e-04
q.xq16.qsky130_fd_pr__pnp_05v5_w0p68l0p68#collcx = 2.748939e-04
q.xq18.qsky130_fd_pr__pnp_05v5_w0p68l0p68#collcx = 2.748939e-04
vb = 8.825925e-01
vdd = 2.300000e+00
vs#branch = -1.77027e-04
vt#branch = 0.000000e+00
xc1.a = 0.000000e+00
xc1.b1 = 0.000000e+00
xc3.a = 1.396256e+00
xc3.b1 = 1.396256e+00
xr1.xsky130_fd_pr__res_xhigh_po_0p69.ra = 7.912774e-01
xr2.xsky130_fd_pr__res_xhigh_po_0p69.ra = 7.912997e-01
xr3.xsky130_fd_pr__res_xhigh_po_0p69.ra = 3.606132e-03
xr4.xsky130_fd_pr__res_xhigh_po_0p69.ra = 7.280614e-01
xr5.xsky130_fd_pr__res_xhigh_po_0p69.ra = 3.606023e-03
xr6.xsky130_fd_pr__res_xhigh_po_0p69.ra = 5.661445e-03
xr7.xsky130_fd_pr__res_xhigh_po_0p69.ra = 1.396256e+00
xr8.xsky130_fd_pr__res_xhigh_po_0p69.ra = 1.203718e+00
xr9.xsky130_fd_pr__res_xhigh_po_0p69.ra = 9.873981e-03
Doing analysis at TEMP = 27.000000 and TNOM = 27.000000


No. of Data Rows : 91
Note: Starting true gmin stepping
Trying gmin =   1.0000E-03 Note: One successful gmin step
Trying gmin =   1.0000E-04 Note: One successful gmin step
Trying gmin =   1.0000E-05 Note: One successful gmin step
Trying gmin =   1.0000E-06 Note: One successful gmin step
Trying gmin =   1.0000E-07 Note: One successful gmin step
Trying gmin =   3.1623E-08 Note: One successful gmin step
Trying gmin =   5.6234E-09 Note: One successful gmin step
Trying gmin =   5.6234E-10 Note: One successful gmin step
Trying gmin =   5.6234E-11 Note: One successful gmin step
Trying gmin =   5.6234E-12 Note: One successful gmin step
Trying gmin =   1.0000E-12 Note: One successful gmin step
Note: True gmin stepping completed
 Reference value :  1.58000e+00Note: Starting true gmin stepping
Trying gmin =   1.0000E-03 Note: One successful gmin step
Trying gmin =   1.0000E-04 Note: One successful gmin step
Trying gmin =   1.0000E-05 Note: One successful gmin step
Trying gmin =   1.0000E-06 Note: One successful gmin step
Trying gmin =   1.0000E-07 Warning: Further gmin increment
Trying gmin =   5.6234E-07 Note: One successful gmin step
Trying gmin =   2.3714E-07 Note: One successful gmin step
Trying gmin =   6.4938E-08 Note: One successful gmin step
Trying gmin =   9.3057E-09 Warning: Further gmin increment
Trying gmin =   3.9954E-08 Warning: Further gmin increment
Trying gmin =   5.7513E-08 Note: One successful gmin step
Trying gmin =   4.7936E-08 Note: One successful gmin step
Trying gmin =   3.6476E-08 Note: One successful gmin step
Trying gmin =   2.4212E-08 Note: One successful gmin step
Trying gmin =   1.3094E-08 Note: One successful gmin step
Trying gmin =   5.2073E-09 Note: One successful gmin step
Trying gmin =   1.3060E-09 Note: One successful gmin step
Trying gmin =   1.6403E-10 Note: One successful gmin step
Trying gmin =   1.6403E-11 Note: One successful gmin step
Trying gmin =   1.6403E-12 Note: One successful gmin step
Trying gmin =   1.0000E-12 Note: One successful gmin step
Note: True gmin stepping completed
Note: Starting true gmin stepping
Trying gmin =   1.0000E-03 Note: One successful gmin step
Trying gmin =   1.0000E-04 Note: One successful gmin step
Trying gmin =   1.0000E-05 Note: One successful gmin step
Trying gmin =   1.0000E-06 Note: One successful gmin step
Trying gmin =   1.0000E-07 Note: One successful gmin step
Trying gmin =   1.0000E-08 Note: One successful gmin step
Trying gmin =   3.1623E-09 Note: One successful gmin step
Trying gmin =   5.6234E-10 Note: One successful gmin step
Trying gmin =   5.6234E-11 Note: One successful gmin step
Trying gmin =   5.6234E-12 Note: One successful gmin step
Trying gmin =   1.0000E-12 Note: One successful gmin step
Note: True gmin stepping completed
 Reference value :  1.54000e+00Note: Starting true gmin stepping
Trying gmin =   1.0000E-03 Note: One successful gmin step
Trying gmin =   1.0000E-04 Note: One successful gmin step
Trying gmin =   1.0000E-05 Note: One successful gmin step
Trying gmin =   1.0000E-06 Note: One successful gmin step
Trying gmin =   1.0000E-07 Warning: Further gmin increment
Trying gmin =   5.6234E-07 Note: One successful gmin step
Trying gmin =   2.3714E-07 Note: One successful gmin step
Trying gmin =   6.4938E-08 Note: One successful gmin step
Trying gmin =   9.3057E-09 Warning: Further gmin increment
Trying gmin =   3.9954E-08 Note: One successful gmin step
Trying gmin =   2.4582E-08 Note: One successful gmin step
Trying gmin =   1.1864E-08 Note: One successful gmin step
Trying gmin =   3.9775E-09 Note: One successful gmin step
Trying gmin =   7.7214E-10 Note: One successful gmin step
Trying gmin =   7.7214E-11 Note: One successful gmin step
Trying gmin =   7.7214E-12 Note: One successful gmin step
Trying gmin =   1.0000E-12 Note: One successful gmin step
Note: True gmin stepping completed
Note: Starting true gmin stepping
Trying gmin =   1.0000E-03 Note: One successful gmin step
Trying gmin =   1.0000E-04 Note: One successful gmin step
Trying gmin =   1.0000E-05 Note: One successful gmin step
Trying gmin =   1.0000E-06 Note: One successful gmin step
Trying gmin =   1.0000E-07 Note: One successful gmin step
Trying gmin =   1.0000E-08 Error: -2.70601e+156, 2 out of range for ^
Warning: Further gmin increment
Trying gmin =   5.6234E-08 Note: One successful gmin step
Trying gmin =   2.3714E-08 Warning: Further gmin increment
Trying gmin =   4.5316E-08 Note: One successful gmin step
Trying gmin =   3.2781E-08 Note: One successful gmin step
Trying gmin =   2.0169E-08 Note: One successful gmin step
Trying gmin =   9.7338E-09 Note: One successful gmin step
Trying gmin =   3.2634E-09 Note: One successful gmin step
Trying gmin =   6.3352E-10 Note: One successful gmin step
Trying gmin =   6.3352E-11 Note: One successful gmin step
Trying gmin =   6.3352E-12 Note: One successful gmin step
Trying gmin =   1.0000E-12 Note: One successful gmin step
Note: True gmin stepping completed
 Reference value :  1.50000e+00pm                  =  5.118661e+01
Doing analysis at TEMP = 27.000000 and TNOM = 27.000000


No. of Data Rows : 91
psrr100             =  -8.693919e+01
psrr100k            =  -2.694399e+01
Doing analysis at TEMP = 27.000000 and TNOM = 27.000000


No. of Data Rows : 86
temp_coeff = 1.388034e+02
Doing analysis at TEMP = 27.000000 and TNOM = 27.000000


No. of Data Rows : 141
vldo_sup_2          =  1.796134e+00
vldo_sup_2_8        =  1.796261e+00
line_reg = 1.587500e-04
Note: No ".plot", ".print", or ".fourier" lines; no simulations run
vin                 =  1.764164e+00
dropout = 1.640000e-04
