 Reference value :  0.00000e+00
No compatibility mode selected!


Circuit: * ldo netlist 

Doing analysis at TEMP = 85.000000 and TNOM = 27.000000


No. of Data Rows : 1
bg_out = 1.102255e+00
inn = 1.068858e+00
inp = 1.068732e+00
l1#branch = 0.000000e+00
ldo_out = 1.812255e+00
m.xm1.msky130_fd_pr__nfet_g5v0d10v5#body = 2.636884e-11
m.xm1.msky130_fd_pr__nfet_g5v0d10v5#dbody = 5.063221e-11
m.xm1.msky130_fd_pr__nfet_g5v0d10v5#sbody = 2.847431e-11
m.xm2.msky130_fd_pr__pfet_g5v0d10v5#body = 2.300000e+00
m.xm2.msky130_fd_pr__pfet_g5v0d10v5#dbody = 2.300000e+00
m.xm2.msky130_fd_pr__pfet_g5v0d10v5#sbody = 2.300000e+00
m.xm3.msky130_fd_pr__pfet_g5v0d10v5#body = 2.300000e+00
m.xm3.msky130_fd_pr__pfet_g5v0d10v5#dbody = 2.300000e+00
m.xm3.msky130_fd_pr__pfet_g5v0d10v5#sbody = 2.300000e+00
m.xm4.msky130_fd_pr__pfet_g5v0d10v5#body = 2.300000e+00
m.xm4.msky130_fd_pr__pfet_g5v0d10v5#dbody = 2.300000e+00
m.xm4.msky130_fd_pr__pfet_g5v0d10v5#sbody = 2.300000e+00
m.xm5.msky130_fd_pr__pfet_g5v0d10v5#body = 2.300000e+00
m.xm5.msky130_fd_pr__pfet_g5v0d10v5#dbody = 2.300000e+00
m.xm5.msky130_fd_pr__pfet_g5v0d10v5#sbody = 2.300000e+00
m.xm6.msky130_fd_pr__nfet_g5v0d10v5#body = 2.034556e-11
m.xm6.msky130_fd_pr__nfet_g5v0d10v5#dbody = 5.086379e-11
m.xm6.msky130_fd_pr__nfet_g5v0d10v5#sbody = 1.017290e-11
m.xm7.msky130_fd_pr__pfet_g5v0d10v5#body = 2.300000e+00
m.xm7.msky130_fd_pr__pfet_g5v0d10v5#dbody = 2.300000e+00
m.xm7.msky130_fd_pr__pfet_g5v0d10v5#sbody = 2.300000e+00
m.xm8.msky130_fd_pr__pfet_g5v0d10v5#body = 2.300000e+00
m.xm8.msky130_fd_pr__pfet_g5v0d10v5#dbody = 2.300000e+00
m.xm8.msky130_fd_pr__pfet_g5v0d10v5#sbody = 2.300000e+00
m.xm9.msky130_fd_pr__nfet_g5v0d10v5#body = 2.457055e-11
m.xm9.msky130_fd_pr__nfet_g5v0d10v5#dbody = 4.926507e-11
m.xm9.msky130_fd_pr__nfet_g5v0d10v5#sbody = 2.444657e-11
m.xm10.msky130_fd_pr__nfet_g5v0d10v5#body = 2.420198e-11
m.xm10.msky130_fd_pr__nfet_g5v0d10v5#dbody = 4.834366e-11
m.xm10.msky130_fd_pr__nfet_g5v0d10v5#sbody = 2.426229e-11
m.xm11.msky130_fd_pr__pfet_g5v0d10v5#body = 2.300000e+00
m.xm11.msky130_fd_pr__pfet_g5v0d10v5#dbody = 2.300000e+00
m.xm11.msky130_fd_pr__pfet_g5v0d10v5#sbody = 2.300000e+00
m.xm12.msky130_fd_pr__pfet_g5v0d10v5#body = 2.300000e+00
m.xm12.msky130_fd_pr__pfet_g5v0d10v5#dbody = 2.300000e+00
m.xm12.msky130_fd_pr__pfet_g5v0d10v5#sbody = 2.300000e+00
m.xm13.msky130_fd_pr__nfet_g5v0d10v5#body = 4.437596e-12
m.xm13.msky130_fd_pr__nfet_g5v0d10v5#dbody = 1.109392e-11
m.xm13.msky130_fd_pr__nfet_g5v0d10v5#sbody = 2.218862e-12
m.xm14.msky130_fd_pr__pfet_g5v0d10v5#body = 2.300000e+00
m.xm14.msky130_fd_pr__pfet_g5v0d10v5#dbody = 2.300000e+00
m.xm14.msky130_fd_pr__pfet_g5v0d10v5#sbody = 2.300000e+00
m.xm15.msky130_fd_pr__nfet_g5v0d10v5#body = 2.502877e-14
m.xm15.msky130_fd_pr__nfet_g5v0d10v5#dbody = 6.257111e-14
m.xm15.msky130_fd_pr__nfet_g5v0d10v5#sbody = 1.251521e-14
m.xm16.msky130_fd_pr__nfet_g5v0d10v5#body = 5.271705e-11
m.xm16.msky130_fd_pr__nfet_g5v0d10v5#dbody = 9.446485e-11
m.xm16.msky130_fd_pr__nfet_g5v0d10v5#sbody = 6.368629e-11
m.xm17.msky130_fd_pr__pfet_g5v0d10v5#body = 2.300000e+00
m.xm17.msky130_fd_pr__pfet_g5v0d10v5#dbody = 2.300000e+00
m.xm17.msky130_fd_pr__pfet_g5v0d10v5#sbody = 2.300000e+00
m.xm18.msky130_fd_pr__nfet_g5v0d10v5#body = 2.150539e-11
m.xm18.msky130_fd_pr__nfet_g5v0d10v5#dbody = 5.373357e-11
m.xm18.msky130_fd_pr__nfet_g5v0d10v5#sbody = 1.075278e-11
m.xm19.msky130_fd_pr__nfet_g5v0d10v5#body = 2.654824e-11
m.xm19.msky130_fd_pr__nfet_g5v0d10v5#dbody = 5.108070e-11
m.xm19.msky130_fd_pr__nfet_g5v0d10v5#sbody = 2.856401e-11
m.xm20.msky130_fd_pr__nfet_g5v0d10v5#body = 1.434901e-11
m.xm20.msky130_fd_pr__nfet_g5v0d10v5#dbody = 3.587245e-11
m.xm20.msky130_fd_pr__nfet_g5v0d10v5#sbody = 7.174585e-12
m.xm22.msky130_fd_pr__nfet_g5v0d10v5#body = 1.092927e-11
m.xm22.msky130_fd_pr__nfet_g5v0d10v5#dbody = 2.732308e-11
m.xm22.msky130_fd_pr__nfet_g5v0d10v5#sbody = 5.464742e-12
m.xm24.msky130_fd_pr__pfet_g5v0d10v5#body = 2.300000e+00
m.xm24.msky130_fd_pr__pfet_g5v0d10v5#dbody = 2.300000e+00
m.xm24.msky130_fd_pr__pfet_g5v0d10v5#sbody = 2.300000e+00
m.xm26.msky130_fd_pr__pfet_g5v0d10v5#body = 2.300000e+00
m.xm26.msky130_fd_pr__pfet_g5v0d10v5#dbody = 2.300000e+00
m.xm26.msky130_fd_pr__pfet_g5v0d10v5#sbody = 2.300000e+00
mir = 1.073659e+00
net1 = 6.368233e-01
net2 = 4.826588e-05
net3 = 7.098866e-01
net4 = 1.887932e-01
net5 = 1.088010e+00
net6 = 9.397436e-01
net7 = 7.097588e-01
net8 = 1.157276e+00
net9 = 1.186761e+00
net10 = 1.948539e-01
net11 = 1.558626e+00
net12 = 1.558626e+00
net13 = 0.000000e+00
out = 1.558626e+00
pos = 1.102582e+00
q.xq2.qsky130_fd_pr__pnp_05v5_w0p68l0p68#collcx = 2.802652e-03
q.xq3.qsky130_fd_pr__pnp_05v5_w0p68l0p68#collcx = 3.565756e-04
q.xq4.qsky130_fd_pr__pnp_05v5_w0p68l0p68#collcx = 3.565756e-04
q.xq8.qsky130_fd_pr__pnp_05v5_w0p68l0p68#collcx = 3.565756e-04
q.xq10.qsky130_fd_pr__pnp_05v5_w0p68l0p68#collcx = 3.565756e-04
q.xq12.qsky130_fd_pr__pnp_05v5_w0p68l0p68#collcx = 3.565756e-04
q.xq14.qsky130_fd_pr__pnp_05v5_w0p68l0p68#collcx = 3.565756e-04
q.xq16.qsky130_fd_pr__pnp_05v5_w0p68l0p68#collcx = 3.565756e-04
q.xq18.qsky130_fd_pr__pnp_05v5_w0p68l0p68#collcx = 3.565756e-04
vb = 9.873091e-01
vdd = 2.300000e+00
vs#branch = -1.87850e-04
vt#branch = 0.000000e+00
xc1.a = 0.000000e+00
xc1.b1 = 0.000000e+00
xc3.a = 1.558626e+00
xc3.b1 = 1.558626e+00
xr1.xsky130_fd_pr__res_xhigh_po_0p69.ra = 7.157250e-01
xr2.xsky130_fd_pr__res_xhigh_po_0p69.ra = 7.158527e-01
xr3.xsky130_fd_pr__res_xhigh_po_0p69.ra = 3.676232e-03
xr4.xsky130_fd_pr__res_xhigh_po_0p69.ra = 6.391848e-01
xr5.xsky130_fd_pr__res_xhigh_po_0p69.ra = 3.675532e-03
xr6.xsky130_fd_pr__res_xhigh_po_0p69.ra = 6.312960e-03
xr7.xsky130_fd_pr__res_xhigh_po_0p69.ra = 1.558626e+00
xr8.xsky130_fd_pr__res_xhigh_po_0p69.ra = 1.112173e+00
xr9.xsky130_fd_pr__res_xhigh_po_0p69.ra = 9.901212e-03
Doing analysis at TEMP = 85.000000 and TNOM = 27.000000


No. of Data Rows : 91
Note: Starting true gmin stepping
Trying gmin =   1.0000E-03 Note: One successful gmin step
Trying gmin =   1.0000E-04 Note: One successful gmin step
Trying gmin =   1.0000E-05 Note: One successful gmin step
Trying gmin =   1.0000E-06 Note: One successful gmin step
Trying gmin =   1.0000E-07 Warning: Further gmin increment
Trying gmin =   5.6234E-07 Note: One successful gmin step
Trying gmin =   2.3714E-07 Note: One successful gmin step
Trying gmin =   6.4938E-08 Warning: Further gmin increment
Trying gmin =   1.7154E-07 Note: One successful gmin step
Trying gmin =   1.0554E-07 Warning: Further gmin increment
Trying gmin =   1.5193E-07 Warning: Further gmin increment
Trying gmin =   1.6641E-07 Note: One successful gmin step
Trying gmin =   1.5901E-07 Note: One successful gmin step
Trying gmin =   1.4851E-07 Warning: Further gmin increment
Trying gmin =   1.5631E-07 Note: One successful gmin step
Trying gmin =   1.5236E-07 Warning: Further gmin increment
Trying gmin =   1.5532E-07 Note: One successful gmin step
Trying gmin =   1.5383E-07 Note: One successful gmin step
Trying gmin =   1.5163E-07 Warning: Further gmin increment
Trying gmin =   1.5328E-07 Warning: Further gmin increment
Trying gmin =   1.5369E-07 Warning: Further gmin increment
Trying gmin =   1.5380E-07 Note: One successful gmin step
Trying gmin =   1.5375E-07 Warning: Further gmin increment
Trying gmin =   1.5378E-07 Note: One successful gmin step
Trying gmin =   1.5377E-07 Note: One successful gmin step
Trying gmin =   1.5374E-07 Warning: Further gmin increment
Trying gmin =   1.5376E-07 Note: One successful gmin step
Trying gmin =   1.5375E-07 Warning: Further gmin increment
Trying gmin =   1.5376E-07 Warning: Last gmin step failed
Warning: True gmin stepping failed
Note: Starting dynamic gmin stepping
Trying gmin =   1.0000E-03 Note: One successful gmin step
Trying gmin =   1.0000E-04 Note: One successful gmin step
Trying gmin =   1.0000E-05 Note: One successful gmin step
Trying gmin =   1.0000E-06 Note: One successful gmin step
Trying gmin =   1.0000E-07 Warning: Further gmin increment
Trying gmin =   5.6234E-07 Warning: Further gmin increment
Trying gmin =   8.6596E-07 Note: One successful gmin step
Trying gmin =   6.9783E-07 Warning: Further gmin increment
Trying gmin =   8.2047E-07 Note: One successful gmin step
Trying gmin =   7.5667E-07 Note: One successful gmin step
Trying gmin =   6.7015E-07 Warning: Further gmin increment
Trying gmin =   7.3404E-07 Note: One successful gmin step
Trying gmin =   7.0137E-07 Warning: Further gmin increment
Trying gmin =   7.2574E-07 Warning: Further gmin increment
Trying gmin =   7.3196E-07 Warning: Further gmin increment
Trying gmin =   7.3352E-07 Note: One successful gmin step
Trying gmin =   7.3274E-07 Warning: Further gmin increment
Trying gmin =   7.3333E-07 Note: One successful gmin step
Trying gmin =   7.3303E-07 Warning: Further gmin increment
Trying gmin =   7.3325E-07 Warning: Further gmin increment
Trying gmin =   7.3331E-07 Note: One successful gmin step
Trying gmin =   7.3328E-07 Warning: Last gmin step failed
Warning: Dynamic gmin stepping failed
Note: Starting source stepping
Supplies reduced to   0.0000% Note: One successful source step
Supplies reduced to   0.1000% Note: One successful source step
Supplies reduced to   0.2000% Note: One successful source step
Supplies reduced to   0.3500% Note: One successful source step
Supplies reduced to   0.5750% Note: One successful source step
Supplies reduced to   0.9125% Note: One successful source step
Supplies reduced to   1.4188% Note: One successful source step
Supplies reduced to   2.1781% Note: One successful source step
Supplies reduced to   3.3172% Note: One successful source step
Supplies reduced to   5.0258% Note: One successful source step
Supplies reduced to   7.5887% Note: One successful source step
Supplies reduced to  11.4330% Note: One successful source step
Supplies reduced to  17.1995% Note: One successful source step
Supplies reduced to  25.8493% Supplies reduced to  17.1995% Note: One successful source step
Supplies reduced to  18.1995% Note: One successful source step
Supplies reduced to  19.6995% Note: One successful source step
Supplies reduced to  21.9495% Note: One successful source step
Supplies reduced to  25.3245% Supplies reduced to  21.9495% Note: One successful source step
Supplies reduced to  22.4558% Note: One successful source step
Supplies reduced to  23.2151% Note: One successful source step
Supplies reduced to  23.5948% Note: One successful source step
Supplies reduced to  24.1644% Note: One successful source step
Supplies reduced to  25.0187% Note: One successful source step
Supplies reduced to  26.3001% Note: One successful source step
Supplies reduced to  28.2223% Note: One successful source step
Supplies reduced to  31.1055% Note: One successful source step
Supplies reduced to  35.4304% Note: One successful source step
Supplies reduced to  41.9177% Note: One successful source step
Supplies reduced to  51.6487% Note: One successful source step
Supplies reduced to  61.3797% Supplies reduced to  51.6487% Note: One successful source step
Supplies reduced to  52.6487% Note: One successful source step
Supplies reduced to  54.1487% Note: One successful source step
Supplies reduced to  56.3987% Note: One successful source step
Supplies reduced to  59.7737% Note: One successful source step
Supplies reduced to  64.8362% Supplies reduced to  59.7737% Note: One successful source step
Supplies reduced to  60.5331% Supplies reduced to  59.7737% Note: One successful source step
Supplies reduced to  59.8876% Note: One successful source step
Supplies reduced to  60.0585% Note: One successful source step
Supplies reduced to  60.3147% Note: One successful source step
Supplies reduced to  60.6992% Supplies reduced to  60.3147% Note: One successful source step
Supplies reduced to  60.3724% Note: One successful source step
Supplies reduced to  60.4589% Supplies reduced to  60.3724% Note: One successful source step
Supplies reduced to  60.3854% Note: One successful source step
Supplies reduced to  60.4048% Note: One successful source step
Supplies reduced to  60.4340% Supplies reduced to  60.4048% Note: One successful source step
Supplies reduced to  60.4092% Note: One successful source step
Supplies reduced to  60.4158% Note: One successful source step
Supplies reduced to  60.4256% Note: One successful source step
Supplies reduced to  60.4404% Supplies reduced to  60.4256% Note: One successful source step
Supplies reduced to  60.4279% Note: One successful source step
Supplies reduced to  60.4312% Supplies reduced to  60.4279% Note: One successful source step
Supplies reduced to  60.4284% Note: One successful source step
Supplies reduced to  60.4291% Note: One successful source step
Supplies reduced to  60.4302% Supplies reduced to  60.4291% Note: One successful source step
Supplies reduced to  60.4293% Note: One successful source step
Supplies reduced to  60.4295% Note: One successful source step
Supplies reduced to  60.4299% Supplies reduced to  60.4295% Note: One successful source step
Supplies reduced to  60.4296% Warning: source stepping failed
doAnalyses: Too many iterations without convergence

dc simulation(s) aborted
Error(parse.c--checkvalid): vldo_sup_2_8: zero length vector.
Error: RHS "abs((vldo_sup_2_8-vldo_sup_2)/0.8)" invalid
Error(parse.c--checkvalid): line_reg: zero length vector.
Error(parse.c--checkvalid): vin: zero length vector.
Error: RHS "vin-1.764" invalid
Error(parse.c--checkvalid): dropout: zero length vector.
Error: no such vector dropout
Note: No ".plot", ".print", or ".fourier" lines; no simulations run
pm                  =  6.323591e+01
Doing analysis at TEMP = 85.000000 and TNOM = 27.000000


No. of Data Rows : 91
psrr100             =  -5.082034e+01
psrr100k            =  -2.524025e+01
Doing analysis at TEMP = 85.000000 and TNOM = 27.000000


No. of Data Rows : 86
temp_coeff = 4.396729e+01
Doing analysis at TEMP = 85.000000 and TNOM = 27.000000


Error: measure  vldo_sup_2  (AT) : out of interval
 meas dc vldo_sup_2 find ldo_out at=2 failed!


Error: measure  vldo_sup_2_8  (AT) : out of interval
 meas dc vldo_sup_2_8 find ldo_out at=2.8 failed!


Error: measure  vin  (WHEN) : out of interval
 meas dc vin when v(ldo_out)=1.764 failed!

