 Reference value :  0.00000e+00
No compatibility mode selected!


Circuit: * ldo netlist 

Doing analysis at TEMP = 85.000000 and TNOM = 27.000000


No. of Data Rows : 1
bg_out = 1.203589e+00
inn = 1.150006e+00
inp = 1.149968e+00
l1#branch = 0.000000e+00
ldo_out = 1.811472e+00
m.xm1.msky130_fd_pr__nfet_g5v0d10v5#body = 2.838707e-11
m.xm1.msky130_fd_pr__nfet_g5v0d10v5#dbody = 5.340342e-11
m.xm1.msky130_fd_pr__nfet_g5v0d10v5#sbody = 3.175778e-11
m.xm2.msky130_fd_pr__pfet_g5v0d10v5#body = 2.300000e+00
m.xm2.msky130_fd_pr__pfet_g5v0d10v5#dbody = 2.300000e+00
m.xm2.msky130_fd_pr__pfet_g5v0d10v5#sbody = 2.300000e+00
m.xm3.msky130_fd_pr__pfet_g5v0d10v5#body = 2.300000e+00
m.xm3.msky130_fd_pr__pfet_g5v0d10v5#dbody = 2.300000e+00
m.xm3.msky130_fd_pr__pfet_g5v0d10v5#sbody = 2.300000e+00
m.xm4.msky130_fd_pr__pfet_g5v0d10v5#body = 2.300000e+00
m.xm4.msky130_fd_pr__pfet_g5v0d10v5#dbody = 2.300000e+00
m.xm4.msky130_fd_pr__pfet_g5v0d10v5#sbody = 2.300000e+00
m.xm5.msky130_fd_pr__pfet_g5v0d10v5#body = 2.300000e+00
m.xm5.msky130_fd_pr__pfet_g5v0d10v5#dbody = 2.300000e+00
m.xm5.msky130_fd_pr__pfet_g5v0d10v5#sbody = 2.300000e+00
m.xm6.msky130_fd_pr__nfet_g5v0d10v5#body = 1.985934e-11
m.xm6.msky130_fd_pr__nfet_g5v0d10v5#dbody = 4.964823e-11
m.xm6.msky130_fd_pr__nfet_g5v0d10v5#sbody = 9.929788e-12
m.xm7.msky130_fd_pr__pfet_g5v0d10v5#body = 2.300000e+00
m.xm7.msky130_fd_pr__pfet_g5v0d10v5#dbody = 2.300000e+00
m.xm7.msky130_fd_pr__pfet_g5v0d10v5#sbody = 2.300000e+00
m.xm8.msky130_fd_pr__pfet_g5v0d10v5#body = 2.300000e+00
m.xm8.msky130_fd_pr__pfet_g5v0d10v5#dbody = 2.300000e+00
m.xm8.msky130_fd_pr__pfet_g5v0d10v5#sbody = 2.300000e+00
m.xm9.msky130_fd_pr__nfet_g5v0d10v5#body = 2.659854e-11
m.xm9.msky130_fd_pr__nfet_g5v0d10v5#dbody = 5.167737e-11
m.xm9.msky130_fd_pr__nfet_g5v0d10v5#sbody = 2.811826e-11
m.xm10.msky130_fd_pr__nfet_g5v0d10v5#body = 2.634490e-11
m.xm10.msky130_fd_pr__nfet_g5v0d10v5#dbody = 5.104328e-11
m.xm10.msky130_fd_pr__nfet_g5v0d10v5#sbody = 2.799144e-11
m.xm11.msky130_fd_pr__pfet_g5v0d10v5#body = 2.300000e+00
m.xm11.msky130_fd_pr__pfet_g5v0d10v5#dbody = 2.300000e+00
m.xm11.msky130_fd_pr__pfet_g5v0d10v5#sbody = 2.300000e+00
m.xm12.msky130_fd_pr__pfet_g5v0d10v5#body = 2.300000e+00
m.xm12.msky130_fd_pr__pfet_g5v0d10v5#dbody = 2.300000e+00
m.xm12.msky130_fd_pr__pfet_g5v0d10v5#sbody = 2.300000e+00
m.xm13.msky130_fd_pr__nfet_g5v0d10v5#body = 5.761931e-12
m.xm13.msky130_fd_pr__nfet_g5v0d10v5#dbody = 1.440476e-11
m.xm13.msky130_fd_pr__nfet_g5v0d10v5#sbody = 2.881036e-12
m.xm14.msky130_fd_pr__pfet_g5v0d10v5#body = 2.300000e+00
m.xm14.msky130_fd_pr__pfet_g5v0d10v5#dbody = 2.300000e+00
m.xm14.msky130_fd_pr__pfet_g5v0d10v5#sbody = 2.300000e+00
m.xm15.msky130_fd_pr__nfet_g5v0d10v5#body = 1.245110e-14
m.xm15.msky130_fd_pr__nfet_g5v0d10v5#dbody = 3.112698e-14
m.xm15.msky130_fd_pr__nfet_g5v0d10v5#sbody = 6.226321e-15
m.xm16.msky130_fd_pr__nfet_g5v0d10v5#body = 5.367954e-11
m.xm16.msky130_fd_pr__nfet_g5v0d10v5#dbody = 9.489423e-11
m.xm16.msky130_fd_pr__nfet_g5v0d10v5#sbody = 6.614437e-11
m.xm17.msky130_fd_pr__pfet_g5v0d10v5#body = 2.300000e+00
m.xm17.msky130_fd_pr__pfet_g5v0d10v5#dbody = 2.300000e+00
m.xm17.msky130_fd_pr__pfet_g5v0d10v5#sbody = 2.300000e+00
m.xm18.msky130_fd_pr__nfet_g5v0d10v5#body = 2.251713e-11
m.xm18.msky130_fd_pr__nfet_g5v0d10v5#dbody = 5.613747e-11
m.xm18.msky130_fd_pr__nfet_g5v0d10v5#sbody = 1.125865e-11
m.xm19.msky130_fd_pr__nfet_g5v0d10v5#body = 2.843902e-11
m.xm19.msky130_fd_pr__nfet_g5v0d10v5#dbody = 5.353331e-11
m.xm19.msky130_fd_pr__nfet_g5v0d10v5#sbody = 3.178376e-11
m.xm20.msky130_fd_pr__nfet_g5v0d10v5#body = 1.353872e-11
m.xm20.msky130_fd_pr__nfet_g5v0d10v5#dbody = 3.384672e-11
m.xm20.msky130_fd_pr__nfet_g5v0d10v5#sbody = 6.769438e-12
m.xm22.msky130_fd_pr__nfet_g5v0d10v5#body = 1.207701e-11
m.xm22.msky130_fd_pr__nfet_g5v0d10v5#dbody = 3.019241e-11
m.xm22.msky130_fd_pr__nfet_g5v0d10v5#sbody = 6.038618e-12
m.xm24.msky130_fd_pr__pfet_g5v0d10v5#body = 2.300000e+00
m.xm24.msky130_fd_pr__pfet_g5v0d10v5#dbody = 2.300000e+00
m.xm24.msky130_fd_pr__pfet_g5v0d10v5#sbody = 2.300000e+00
m.xm26.msky130_fd_pr__pfet_g5v0d10v5#body = 2.300000e+00
m.xm26.msky130_fd_pr__pfet_g5v0d10v5#dbody = 2.300000e+00
m.xm26.msky130_fd_pr__pfet_g5v0d10v5#sbody = 2.300000e+00
mir = 1.146217e+00
net1 = 6.313398e-01
net2 = 2.403849e-05
net3 = 7.051961e-01
net4 = 2.804828e-01
net5 = 1.150373e+00
net6 = 9.029202e-01
net7 = 7.051579e-01
net8 = 1.224476e+00
net9 = 1.244767e+00
net10 = 3.024350e-01
net11 = 1.636622e+00
net12 = 1.636622e+00
net13 = 0.000000e+00
out = 1.636622e+00
pos = 1.203824e+00
q.xq2.qsky130_fd_pr__pnp_05v5_w0p68l0p68#collcx = 3.102336e-03
q.xq3.qsky130_fd_pr__pnp_05v5_w0p68l0p68#collcx = 3.917314e-04
q.xq4.qsky130_fd_pr__pnp_05v5_w0p68l0p68#collcx = 3.917314e-04
q.xq8.qsky130_fd_pr__pnp_05v5_w0p68l0p68#collcx = 3.917314e-04
q.xq10.qsky130_fd_pr__pnp_05v5_w0p68l0p68#collcx = 3.917314e-04
q.xq12.qsky130_fd_pr__pnp_05v5_w0p68l0p68#collcx = 3.917314e-04
q.xq14.qsky130_fd_pr__pnp_05v5_w0p68l0p68#collcx = 3.917314e-04
q.xq16.qsky130_fd_pr__pnp_05v5_w0p68l0p68#collcx = 3.917314e-04
q.xq18.qsky130_fd_pr__pnp_05v5_w0p68l0p68#collcx = 3.917314e-04
vb = 9.245599e-01
vdd = 2.300000e+00
vs#branch = -1.95042e-04
vt#branch = 0.000000e+00
xc1.a = 0.000000e+00
xc1.b1 = 0.000000e+00
xc3.a = 1.636622e+00
xc3.b1 = 1.636622e+00
xr1.xsky130_fd_pr__res_xhigh_po_0p69.ra = 7.083338e-01
xr2.xsky130_fd_pr__res_xhigh_po_0p69.ra = 7.083719e-01
xr3.xsky130_fd_pr__res_xhigh_po_0p69.ra = 1.893373e-03
xr4.xsky130_fd_pr__res_xhigh_po_0p69.ra = 6.326398e-01
xr5.xsky130_fd_pr__res_xhigh_po_0p69.ra = 1.893264e-03
xr6.xsky130_fd_pr__res_xhigh_po_0p69.ra = 3.364376e-03
xr7.xsky130_fd_pr__res_xhigh_po_0p69.ra = 1.636622e+00
xr8.xsky130_fd_pr__res_xhigh_po_0p69.ra = 1.209415e+00
xr9.xsky130_fd_pr__res_xhigh_po_0p69.ra = 5.864009e-03
Doing analysis at TEMP = 85.000000 and TNOM = 27.000000


No. of Data Rows : 91
Note: Starting true gmin stepping
Trying gmin =   1.0000E-03 Note: One successful gmin step
Trying gmin =   1.0000E-04 Note: One successful gmin step
Trying gmin =   1.0000E-05 Note: One successful gmin step
Trying gmin =   1.0000E-06 Note: One successful gmin step
Trying gmin =   1.0000E-07 Note: One successful gmin step
Trying gmin =   1.0000E-08 Warning: Further gmin increment
Trying gmin =   5.6234E-08 Warning: Further gmin increment
Trying gmin =   8.6596E-08 Note: One successful gmin step
Trying gmin =   6.9783E-08 Warning: Further gmin increment
Trying gmin =   8.2047E-08 Note: One successful gmin step
Trying gmin =   7.5667E-08 Warning: Further gmin increment
Trying gmin =   8.0403E-08 Note: One successful gmin step
Trying gmin =   7.7999E-08 Note: One successful gmin step
Trying gmin =   7.4527E-08 Warning: Further gmin increment
Trying gmin =   7.7116E-08 Warning: Further gmin increment
Trying gmin =   7.7777E-08 Note: One successful gmin step
Trying gmin =   7.7446E-08 Warning: Further gmin increment
Trying gmin =   7.7695E-08 Warning: Further gmin increment
Trying gmin =   7.7757E-08 Note: One successful gmin step
Trying gmin =   7.7726E-08 Note: One successful gmin step
Trying gmin =   7.7679E-08 Warning: Further gmin increment
Trying gmin =   7.7714E-08 Note: One successful gmin step
Trying gmin =   7.7696E-08 Warning: Further gmin increment
Trying gmin =   7.7710E-08 Note: One successful gmin step
Trying gmin =   7.7703E-08 Warning: Further gmin increment
Trying gmin =   7.7708E-08 Note: One successful gmin step
Trying gmin =   7.7705E-08 Note: One successful gmin step
Trying gmin =   7.7702E-08 Warning: Last gmin step failed
Warning: True gmin stepping failed
Note: Starting dynamic gmin stepping
Trying gmin =   1.0000E-03 Note: One successful gmin step
Trying gmin =   1.0000E-04 Note: One successful gmin step
Trying gmin =   1.0000E-05 Warning: Further gmin increment
Trying gmin =   5.6234E-05 Note: One successful gmin step
Trying gmin =   2.3714E-05 Note: One successful gmin step
Trying gmin =   6.4938E-06 Warning: Further gmin increment
Trying gmin =   1.7154E-05 Note: One successful gmin step
Trying gmin =   1.0554E-05 Warning: Further gmin increment
Trying gmin =   1.5193E-05 Note: One successful gmin step
Trying gmin =   1.2663E-05 Warning: Further gmin increment
Trying gmin =   1.4517E-05 Note: One successful gmin step
Trying gmin =   1.3558E-05 Note: One successful gmin step
Trying gmin =   1.2238E-05 Note: One successful gmin step
Trying gmin =   1.0495E-05 Note: One successful gmin step
Trying gmin =   8.3340E-06 Note: One successful gmin step
Trying gmin =   5.8977E-06 Note: One successful gmin step
Trying gmin =   4.1736E-06 Note: One successful gmin step
Trying gmin =   2.4846E-06 Warning: Further gmin increment
Trying gmin =   3.6661E-06 Note: One successful gmin step
Trying gmin =   3.0181E-06 Note: One successful gmin step
Trying gmin =   2.2544E-06 Warning: Further gmin increment
Trying gmin =   2.8058E-06 Warning: Further gmin increment
Trying gmin =   2.9635E-06 Note: One successful gmin step
Trying gmin =   2.8836E-06 Warning: Further gmin increment
Trying gmin =   2.9433E-06 Note: One successful gmin step
Trying gmin =   2.9133E-06 Note: One successful gmin step
Trying gmin =   2.8688E-06 Note: One successful gmin step
Trying gmin =   2.8034E-06 Note: One successful gmin step
Trying gmin =   2.7080E-06 Note: One successful gmin step
Trying gmin =   2.5710E-06 Note: One successful gmin step
Trying gmin =   2.3783E-06 Note: One successful gmin step
Trying gmin =   2.1161E-06 Note: One successful gmin step
Trying gmin =   1.7759E-06 Note: One successful gmin step
Trying gmin =   1.3654E-06 Note: One successful gmin step
Trying gmin =   9.2048E-07 Note: One successful gmin step
Trying gmin =   5.0950E-07 Note: One successful gmin step
Trying gmin =   2.0982E-07 Note: One successful gmin step
Trying gmin =   5.5449E-08 Note: One successful gmin step
Trying gmin =   7.5329E-09 Note: One successful gmin step
Trying gmin =   7.5329E-10 Note: One successful gmin step
Trying gmin =   7.5329E-11 Note: One successful gmin step
Trying gmin =   7.5329E-12 Note: One successful gmin step
Trying gmin =   1.0000E-12 Note: One successful gmin step
Note: Dynamic gmin stepping completed
 Reference value :  2.80000e+00Note: Starting true gmin stepping
Trying gmin =   1.0000E-03 Note: One successful gmin step
Trying gmin =   1.0000E-04 Note: One successful gmin step
Trying gmin =   1.0000E-05 Note: One successful gmin step
Trying gmin =   1.0000E-06 Note: One successful gmin step
Trying gmin =   1.0000E-07 Note: One successful gmin step
Trying gmin =   1.0000E-08 Warning: Further gmin increment
Trying gmin =   5.6234E-08 Note: One successful gmin step
Trying gmin =   3.1623E-08 Note: One successful gmin step
Trying gmin =   1.3335E-08 Note: One successful gmin step
Trying gmin =   3.6517E-09 Warning: Further gmin increment
Trying gmin =   9.6466E-09 Note: One successful gmin step
Trying gmin =   5.9352E-09 Note: One successful gmin step
Trying gmin =   2.8644E-09 Note: One successful gmin step
Trying gmin =   9.6033E-10 Note: One successful gmin step
Trying gmin =   1.8643E-10 Note: One successful gmin step
Trying gmin =   1.8643E-11 Note: One successful gmin step
Trying gmin =   1.8643E-12 Note: One successful gmin step
Trying gmin =   1.0000E-12 Note: One successful gmin step
Note: True gmin stepping completed
Note: Starting true gmin stepping
Trying gmin =   1.0000E-03 Note: One successful gmin step
Trying gmin =   1.0000E-04 Note: One successful gmin step
Trying gmin =   1.0000E-05 Note: One successful gmin step
Trying gmin =   1.0000E-06 Note: One successful gmin step
Trying gmin =   1.0000E-07 Note: One successful gmin step
Trying gmin =   1.0000E-08 Warning: Further gmin increment
Trying gmin =   5.6234E-08 Note: One successful gmin step
Trying gmin =   3.1623E-08 Note: One successful gmin step
Trying gmin =   1.3335E-08 Note: One successful gmin step
Trying gmin =   3.6517E-09 Warning: Further gmin increment
Trying gmin =   9.6466E-09 Note: One successful gmin step
Trying gmin =   5.9352E-09 Note: One successful gmin step
Trying gmin =   2.8644E-09 Note: One successful gmin step
Trying gmin =   9.6033E-10 Note: One successful gmin step
Trying gmin =   1.8643E-10 Note: One successful gmin step
Trying gmin =   1.8643E-11 Note: One successful gmin step
Trying gmin =   1.8643E-12 Note: One successful gmin step
Trying gmin =   1.0000E-12 Note: One successful gmin step
Note: True gmin stepping completed
 Reference value :  1.24000e+00pm                  =  5.583188e+01
Doing analysis at TEMP = 85.000000 and TNOM = 27.000000


No. of Data Rows : 91
psrr100             =  -5.072330e+01
psrr100k            =  -2.702849e+01
Doing analysis at TEMP = 85.000000 and TNOM = 27.000000


No. of Data Rows : 86
temp_coeff = 1.702807e+02
Doing analysis at TEMP = 85.000000 and TNOM = 27.000000


No. of Data Rows : 141
vldo_sup_2          =  1.810227e+00
vldo_sup_2_8        =  1.812479e+00
line_reg = 2.815000e-03
Note: No ".plot", ".print", or ".fourier" lines; no simulations run
vin                 =  1.764144e+00
dropout = 1.440000e-04
