 Reference value :  0.00000e+00
No compatibility mode selected!


Circuit: * ldo netlist 

Doing analysis at TEMP = 85.000000 and TNOM = 27.000000


No. of Data Rows : 1
bg_out = 1.206166e+00
inn = 1.157447e+00
inp = 1.157351e+00
l1#branch = 0.000000e+00
ldo_out = 1.814939e+00
m.xm1.msky130_fd_pr__nfet_g5v0d10v5#body = 2.457357e-11
m.xm1.msky130_fd_pr__nfet_g5v0d10v5#dbody = 4.461769e-11
m.xm1.msky130_fd_pr__nfet_g5v0d10v5#sbody = 2.910302e-11
m.xm2.msky130_fd_pr__pfet_g5v0d10v5#body = 2.100000e+00
m.xm2.msky130_fd_pr__pfet_g5v0d10v5#dbody = 2.100000e+00
m.xm2.msky130_fd_pr__pfet_g5v0d10v5#sbody = 2.100000e+00
m.xm3.msky130_fd_pr__pfet_g5v0d10v5#body = 2.100000e+00
m.xm3.msky130_fd_pr__pfet_g5v0d10v5#dbody = 2.100000e+00
m.xm3.msky130_fd_pr__pfet_g5v0d10v5#sbody = 2.100000e+00
m.xm4.msky130_fd_pr__pfet_g5v0d10v5#body = 2.100000e+00
m.xm4.msky130_fd_pr__pfet_g5v0d10v5#dbody = 2.100000e+00
m.xm4.msky130_fd_pr__pfet_g5v0d10v5#sbody = 2.100000e+00
m.xm5.msky130_fd_pr__pfet_g5v0d10v5#body = 2.100000e+00
m.xm5.msky130_fd_pr__pfet_g5v0d10v5#dbody = 2.100000e+00
m.xm5.msky130_fd_pr__pfet_g5v0d10v5#sbody = 2.100000e+00
m.xm6.msky130_fd_pr__nfet_g5v0d10v5#body = 2.037580e-11
m.xm6.msky130_fd_pr__nfet_g5v0d10v5#dbody = 5.093938e-11
m.xm6.msky130_fd_pr__nfet_g5v0d10v5#sbody = 1.018802e-11
m.xm7.msky130_fd_pr__pfet_g5v0d10v5#body = 2.100000e+00
m.xm7.msky130_fd_pr__pfet_g5v0d10v5#dbody = 2.100000e+00
m.xm7.msky130_fd_pr__pfet_g5v0d10v5#sbody = 2.100000e+00
m.xm8.msky130_fd_pr__pfet_g5v0d10v5#body = 2.100000e+00
m.xm8.msky130_fd_pr__pfet_g5v0d10v5#dbody = 2.100000e+00
m.xm8.msky130_fd_pr__pfet_g5v0d10v5#sbody = 2.100000e+00
m.xm9.msky130_fd_pr__nfet_g5v0d10v5#body = 2.283421e-11
m.xm9.msky130_fd_pr__nfet_g5v0d10v5#dbody = 4.315937e-11
m.xm9.msky130_fd_pr__nfet_g5v0d10v5#sbody = 2.534327e-11
m.xm10.msky130_fd_pr__nfet_g5v0d10v5#body = 2.287003e-11
m.xm10.msky130_fd_pr__nfet_g5v0d10v5#dbody = 4.324891e-11
m.xm10.msky130_fd_pr__nfet_g5v0d10v5#sbody = 2.536117e-11
m.xm11.msky130_fd_pr__pfet_g5v0d10v5#body = 2.100000e+00
m.xm11.msky130_fd_pr__pfet_g5v0d10v5#dbody = 2.100000e+00
m.xm11.msky130_fd_pr__pfet_g5v0d10v5#sbody = 2.100000e+00
m.xm12.msky130_fd_pr__pfet_g5v0d10v5#body = 2.100000e+00
m.xm12.msky130_fd_pr__pfet_g5v0d10v5#dbody = 2.100000e+00
m.xm12.msky130_fd_pr__pfet_g5v0d10v5#sbody = 2.100000e+00
m.xm13.msky130_fd_pr__nfet_g5v0d10v5#body = 5.315908e-12
m.xm13.msky130_fd_pr__nfet_g5v0d10v5#dbody = 1.328970e-11
m.xm13.msky130_fd_pr__nfet_g5v0d10v5#sbody = 2.658024e-12
m.xm14.msky130_fd_pr__pfet_g5v0d10v5#body = 2.100000e+00
m.xm14.msky130_fd_pr__pfet_g5v0d10v5#dbody = 2.100000e+00
m.xm14.msky130_fd_pr__pfet_g5v0d10v5#sbody = 2.100000e+00
m.xm15.msky130_fd_pr__nfet_g5v0d10v5#body = 1.129888e-15
m.xm15.msky130_fd_pr__nfet_g5v0d10v5#dbody = 2.824667e-15
m.xm15.msky130_fd_pr__nfet_g5v0d10v5#sbody = 5.649958e-16
m.xm16.msky130_fd_pr__nfet_g5v0d10v5#body = 5.132441e-11
m.xm16.msky130_fd_pr__nfet_g5v0d10v5#dbody = 8.876853e-11
m.xm16.msky130_fd_pr__nfet_g5v0d10v5#sbody = 6.520470e-11
m.xm17.msky130_fd_pr__pfet_g5v0d10v5#body = 2.100000e+00
m.xm17.msky130_fd_pr__pfet_g5v0d10v5#dbody = 2.100000e+00
m.xm17.msky130_fd_pr__pfet_g5v0d10v5#sbody = 2.100000e+00
m.xm18.msky130_fd_pr__nfet_g5v0d10v5#body = 5.608771e-12
m.xm18.msky130_fd_pr__nfet_g5v0d10v5#dbody = 1.402186e-11
m.xm18.msky130_fd_pr__nfet_g5v0d10v5#sbody = 2.804456e-12
m.xm19.msky130_fd_pr__nfet_g5v0d10v5#body = 2.468122e-11
m.xm19.msky130_fd_pr__nfet_g5v0d10v5#dbody = 4.488682e-11
m.xm19.msky130_fd_pr__nfet_g5v0d10v5#sbody = 2.915684e-11
m.xm20.msky130_fd_pr__nfet_g5v0d10v5#body = 1.438126e-11
m.xm20.msky130_fd_pr__nfet_g5v0d10v5#dbody = 3.595308e-11
m.xm20.msky130_fd_pr__nfet_g5v0d10v5#sbody = 7.190711e-12
m.xm22.msky130_fd_pr__nfet_g5v0d10v5#body = 1.170185e-11
m.xm22.msky130_fd_pr__nfet_g5v0d10v5#dbody = 2.925452e-11
m.xm22.msky130_fd_pr__nfet_g5v0d10v5#sbody = 5.851039e-12
m.xm24.msky130_fd_pr__pfet_g5v0d10v5#body = 2.100000e+00
m.xm24.msky130_fd_pr__pfet_g5v0d10v5#dbody = 2.100000e+00
m.xm24.msky130_fd_pr__pfet_g5v0d10v5#sbody = 2.100000e+00
m.xm26.msky130_fd_pr__pfet_g5v0d10v5#body = 2.100000e+00
m.xm26.msky130_fd_pr__pfet_g5v0d10v5#dbody = 2.100000e+00
m.xm26.msky130_fd_pr__pfet_g5v0d10v5#sbody = 2.100000e+00
mir = 8.689833e-01
net1 = 6.383427e-01
net2 = 2.177420e-06
net3 = 7.116897e-01
net4 = 2.486360e-01
net5 = 8.775953e-01
net6 = 9.421626e-01
net7 = 7.115923e-01
net8 = 9.801248e-01
net9 = 9.772595e-01
net10 = 2.647170e-01
net11 = 2.881177e-01
net12 = 2.881177e-01
net13 = 0.000000e+00
out = 2.881177e-01
pos = 1.206128e+00
q.xq2.qsky130_fd_pr__pnp_05v5_w0p68l0p68#collcx = 2.932264e-03
q.xq3.qsky130_fd_pr__pnp_05v5_w0p68l0p68#collcx = 3.733396e-04
q.xq4.qsky130_fd_pr__pnp_05v5_w0p68l0p68#collcx = 3.733396e-04
q.xq8.qsky130_fd_pr__pnp_05v5_w0p68l0p68#collcx = 3.733396e-04
q.xq10.qsky130_fd_pr__pnp_05v5_w0p68l0p68#collcx = 3.733396e-04
q.xq12.qsky130_fd_pr__pnp_05v5_w0p68l0p68#collcx = 3.733396e-04
q.xq14.qsky130_fd_pr__pnp_05v5_w0p68l0p68#collcx = 3.733396e-04
q.xq16.qsky130_fd_pr__pnp_05v5_w0p68l0p68#collcx = 3.733396e-04
q.xq18.qsky130_fd_pr__pnp_05v5_w0p68l0p68#collcx = 3.733396e-04
vb = 9.898890e-01
vdd = 2.100000e+00
vs#branch = -1.00971e-01
vt#branch = 0.000000e+00
xc1.a = 0.000000e+00
xc1.b1 = 0.000000e+00
xc3.a = 2.881177e-01
xc3.b1 = 2.881177e-01
xr1.xsky130_fd_pr__res_xhigh_po_0p69.ra = 7.147752e-01
xr2.xsky130_fd_pr__res_xhigh_po_0p69.ra = 7.148725e-01
xr3.xsky130_fd_pr__res_xhigh_po_0p69.ra = 1.911837e-03
xr4.xsky130_fd_pr__res_xhigh_po_0p69.ra = 6.396327e-01
xr5.xsky130_fd_pr__res_xhigh_po_0p69.ra = 1.911559e-03
xr6.xsky130_fd_pr__res_xhigh_po_0p69.ra = 3.372226e-03
xr7.xsky130_fd_pr__res_xhigh_po_0p69.ra = 2.881177e-01
xr8.xsky130_fd_pr__res_xhigh_po_0p69.ra = 1.211729e+00
xr9.xsky130_fd_pr__res_xhigh_po_0p69.ra = 5.876234e-03
Doing analysis at TEMP = 85.000000 and TNOM = 27.000000


No. of Data Rows : 91
Note: Starting true gmin stepping
Trying gmin =   1.0000E-03 Note: One successful gmin step
Trying gmin =   1.0000E-04 Note: One successful gmin step
Trying gmin =   1.0000E-05 Note: One successful gmin step
Trying gmin =   1.0000E-06 Note: One successful gmin step
Trying gmin =   1.0000E-07 Note: One successful gmin step
Trying gmin =   1.0000E-08 Note: One successful gmin step
Trying gmin =   1.0000E-09 Warning: Further gmin increment
Trying gmin =   5.6234E-09 Note: One successful gmin step
Trying gmin =   2.3714E-09 Note: One successful gmin step
Trying gmin =   1.0000E-09 Warning: Further gmin increment
Trying gmin =   1.9110E-09 Note: One successful gmin step
Trying gmin =   1.3824E-09 Note: One successful gmin step
Trying gmin =   8.5053E-10 Note: One successful gmin step
Trying gmin =   4.1047E-10 Note: One successful gmin step
Trying gmin =   1.3762E-10 Note: One successful gmin step
Trying gmin =   2.6715E-11 Note: One successful gmin step
Trying gmin =   2.6715E-12 Note: One successful gmin step
Trying gmin =   1.0000E-12 Note: One successful gmin step
Note: True gmin stepping completed
 Reference value :  1.22000e+00Note: Starting true gmin stepping
Trying gmin =   1.0000E-03 Note: One successful gmin step
Trying gmin =   1.0000E-04 Note: One successful gmin step
Trying gmin =   1.0000E-05 Note: One successful gmin step
Trying gmin =   1.0000E-06 Note: One successful gmin step
Trying gmin =   1.0000E-07 Note: One successful gmin step
Trying gmin =   1.0000E-08 Note: One successful gmin step
Trying gmin =   1.0000E-09 Warning: Further gmin increment
Trying gmin =   5.6234E-09 Note: One successful gmin step
Trying gmin =   2.3714E-09 Note: One successful gmin step
Trying gmin =   1.0000E-09 Error: -4.03624e+182, 2 out of range for ^
Warning: Further gmin increment
Trying gmin =   1.9110E-09 Note: One successful gmin step
Trying gmin =   1.3824E-09 Warning: Further gmin increment
Trying gmin =   1.7624E-09 Note: One successful gmin step
Trying gmin =   1.5608E-09 Note: One successful gmin step
Trying gmin =   1.3009E-09 Note: One successful gmin step
Trying gmin =   9.8993E-10 Note: One successful gmin step
Trying gmin =   6.5709E-10 Note: One successful gmin step
Trying gmin =   3.5535E-10 Note: One successful gmin step
Trying gmin =   1.4132E-10 Note: One successful gmin step
Trying gmin =   3.5443E-11 Note: One successful gmin step
Trying gmin =   4.4516E-12 Note: One successful gmin step
Trying gmin =   1.0000E-12 Note: One successful gmin step
Note: True gmin stepping completed
 Reference value :  2.60000e-01pm                  =  9.695869e+01
Doing analysis at TEMP = 85.000000 and TNOM = 27.000000


No. of Data Rows : 91
psrr100             =  -4.068026e+01
psrr100k            =  -1.372143e+01
Doing analysis at TEMP = 85.000000 and TNOM = 27.000000


No. of Data Rows : 86
temp_coeff = 1.645651e+02
Doing analysis at TEMP = 85.000000 and TNOM = 27.000000


No. of Data Rows : 141
vldo_sup_2          =  1.779835e+00
vldo_sup_2_8        =  1.817154e+00
line_reg = 4.664875e-02
Note: No ".plot", ".print", or ".fourier" lines; no simulations run
vin                 =  1.985233e+00
dropout = 2.212330e-01
