Note: Starting true gmin stepping
Trying gmin =   1.0000E-03 Note: One successful gmin step
Trying gmin =   1.0000E-04 Note: One successful gmin step
Trying gmin =   1.0000E-05 Note: One successful gmin step
Trying gmin =   1.0000E-06 Note: One successful gmin step
Trying gmin =   1.0000E-07 Note: One successful gmin step
Trying gmin =   1.0000E-08 Note: One successful gmin step
Trying gmin =   1.0000E-09 Note: One successful gmin step
Trying gmin =   1.0000E-10 Note: One successful gmin step
Trying gmin =   1.0000E-11 Note: One successful gmin step
Trying gmin =   1.0000E-12 Note: One successful gmin step
Trying gmin =   1.0000E-12 Note: One successful gmin step
Note: True gmin stepping completed
 Reference value :  0.00000e+00
No compatibility mode selected!


Circuit: * ldo netlist 

Doing analysis at TEMP = 0.000000 and TNOM = 27.000000


No. of Data Rows : 1
bg_out = 2.466492e+00
inn = 2.442181e+00
inp = -9.04670e+02
l1#branch = 0.000000e+00
ldo_out = 2.488145e+00
m.xm1.msky130_fd_pr__nfet_g5v0d10v5#body = 9.716010e-16
m.xm1.msky130_fd_pr__nfet_g5v0d10v5#dbody = 1.556858e-15
m.xm1.msky130_fd_pr__nfet_g5v0d10v5#sbody = 1.357945e-15
m.xm2.msky130_fd_pr__pfet_g5v0d10v5#body = 2.481442e+00
m.xm2.msky130_fd_pr__pfet_g5v0d10v5#dbody = 2.490721e+00
m.xm2.msky130_fd_pr__pfet_g5v0d10v5#sbody = 2.490721e+00
m.xm3.msky130_fd_pr__pfet_g5v0d10v5#body = 2.500000e+00
m.xm3.msky130_fd_pr__pfet_g5v0d10v5#dbody = 2.500000e+00
m.xm3.msky130_fd_pr__pfet_g5v0d10v5#sbody = 2.500000e+00
m.xm4.msky130_fd_pr__pfet_g5v0d10v5#body = 2.500000e+00
m.xm4.msky130_fd_pr__pfet_g5v0d10v5#dbody = 2.500000e+00
m.xm4.msky130_fd_pr__pfet_g5v0d10v5#sbody = 2.500000e+00
m.xm5.msky130_fd_pr__pfet_g5v0d10v5#body = 2.500000e+00
m.xm5.msky130_fd_pr__pfet_g5v0d10v5#dbody = 2.500000e+00
m.xm5.msky130_fd_pr__pfet_g5v0d10v5#sbody = 2.500000e+00
m.xm6.msky130_fd_pr__nfet_g5v0d10v5#body = 2.085374e-11
m.xm6.msky130_fd_pr__nfet_g5v0d10v5#dbody = 5.206525e-11
m.xm6.msky130_fd_pr__nfet_g5v0d10v5#sbody = 1.042702e-11
m.xm7.msky130_fd_pr__pfet_g5v0d10v5#body = 2.500000e+00
m.xm7.msky130_fd_pr__pfet_g5v0d10v5#dbody = 2.500000e+00
m.xm7.msky130_fd_pr__pfet_g5v0d10v5#sbody = 2.500000e+00
m.xm8.msky130_fd_pr__pfet_g5v0d10v5#body = 2.500000e+00
m.xm8.msky130_fd_pr__pfet_g5v0d10v5#dbody = 2.500000e+00
m.xm8.msky130_fd_pr__pfet_g5v0d10v5#sbody = 2.500000e+00
m.xm9.msky130_fd_pr__nfet_g5v0d10v5#body = 1.213921e-11
m.xm9.msky130_fd_pr__nfet_g5v0d10v5#dbody = 1.933502e-11
m.xm9.msky130_fd_pr__nfet_g5v0d10v5#sbody = 1.708260e-11
m.xm10.msky130_fd_pr__nfet_g5v0d10v5#body = 3.768600e-11
m.xm10.msky130_fd_pr__nfet_g5v0d10v5#dbody = 7.485755e-11
m.xm10.msky130_fd_pr__nfet_g5v0d10v5#sbody = 2.985595e-11
m.xm11.msky130_fd_pr__pfet_g5v0d10v5#body = 2.500000e+00
m.xm11.msky130_fd_pr__pfet_g5v0d10v5#dbody = 2.500000e+00
m.xm11.msky130_fd_pr__pfet_g5v0d10v5#sbody = 2.500000e+00
m.xm12.msky130_fd_pr__pfet_g5v0d10v5#body = 2.500000e+00
m.xm12.msky130_fd_pr__pfet_g5v0d10v5#dbody = 2.500000e+00
m.xm12.msky130_fd_pr__pfet_g5v0d10v5#sbody = 2.500000e+00
m.xm13.msky130_fd_pr__nfet_g5v0d10v5#body = 5.506435e-12
m.xm13.msky130_fd_pr__nfet_g5v0d10v5#dbody = 1.376580e-11
m.xm13.msky130_fd_pr__nfet_g5v0d10v5#sbody = 2.753501e-12
m.xm14.msky130_fd_pr__pfet_g5v0d10v5#body = 2.500000e+00
m.xm14.msky130_fd_pr__pfet_g5v0d10v5#dbody = 2.500000e+00
m.xm14.msky130_fd_pr__pfet_g5v0d10v5#sbody = 2.500000e+00
m.xm15.msky130_fd_pr__nfet_g5v0d10v5#body = 1.561500e-21
m.xm15.msky130_fd_pr__nfet_g5v0d10v5#dbody = 3.903297e-21
m.xm15.msky130_fd_pr__nfet_g5v0d10v5#sbody = 7.812035e-22
m.xm16.msky130_fd_pr__nfet_g5v0d10v5#body = 6.177738e-11
m.xm16.msky130_fd_pr__nfet_g5v0d10v5#dbody = 9.338881e-11
m.xm16.msky130_fd_pr__nfet_g5v0d10v5#sbody = 9.194332e-11
m.xm17.msky130_fd_pr__pfet_g5v0d10v5#body = 2.500000e+00
m.xm17.msky130_fd_pr__pfet_g5v0d10v5#dbody = 2.500000e+00
m.xm17.msky130_fd_pr__pfet_g5v0d10v5#sbody = 2.500000e+00
m.xm18.msky130_fd_pr__nfet_g5v0d10v5#body = 2.260996e-19
m.xm18.msky130_fd_pr__nfet_g5v0d10v5#dbody = 5.652309e-19
m.xm18.msky130_fd_pr__nfet_g5v0d10v5#sbody = 1.130680e-19
m.xm19.msky130_fd_pr__nfet_g5v0d10v5#body = 1.101543e-07
m.xm19.msky130_fd_pr__nfet_g5v0d10v5#dbody = 5.511808e-08
m.xm19.msky130_fd_pr__nfet_g5v0d10v5#sbody = 5.507716e-08
m.xm20.msky130_fd_pr__nfet_g5v0d10v5#body = 2.145696e-11
m.xm20.msky130_fd_pr__nfet_g5v0d10v5#dbody = 5.363492e-11
m.xm20.msky130_fd_pr__nfet_g5v0d10v5#sbody = 1.072885e-11
m.xm22.msky130_fd_pr__nfet_g5v0d10v5#body = 4.361161e-16
m.xm22.msky130_fd_pr__nfet_g5v0d10v5#dbody = 1.090274e-15
m.xm22.msky130_fd_pr__nfet_g5v0d10v5#sbody = 2.180739e-16
m.xm24.msky130_fd_pr__pfet_g5v0d10v5#body = 2.500000e+00
m.xm24.msky130_fd_pr__pfet_g5v0d10v5#dbody = 2.500000e+00
m.xm24.msky130_fd_pr__pfet_g5v0d10v5#sbody = 2.500000e+00
m.xm26.msky130_fd_pr__pfet_g5v0d10v5#body = 2.500000e+00
m.xm26.msky130Note: Starting true gmin stepping
Trying gmin =   1.0000E-03 Note: One successful gmin step
Trying gmin =   1.0000E-04 Note: One successful gmin step
Trying gmin =   1.0000E-05 Note: One successful gmin step
Trying gmin =   1.0000E-06 Note: One successful gmin step
Trying gmin =   1.0000E-07 Note: One successful gmin step
Trying gmin =   1.0000E-08 Note: One successful gmin step
Trying gmin =   1.0000E-09 Note: One successful gmin step
Trying gmin =   1.0000E-10 Note: One successful gmin step
Trying gmin =   1.0000E-11 Note: One successful gmin step
Trying gmin =   1.0000E-12 Note: One successful gmin step
Trying gmin =   1.0000E-12 Note: One successful gmin step
Note: True gmin stepping completed
_fd_pr__pfet_g5v0d10v5#dbody = 2.500000e+00
m.xm26.msky130_fd_pr__pfet_g5v0d10v5#sbody = 2.500000e+00
mir = 4.283491e-05
net1 = 2.469669e+00
net2 = 1.248460e-10
net3 = 8.919350e-01
net4 = 3.487877e-05
net5 = 1.636494e+00
net6 = 1.665534e+00
net7 = 2.218638e+02
net8 = 2.240580e+00
net9 = 5.306174e-01
net10 = 4.405128e-01
net11 = 1.808672e-08
net12 = 1.808672e-08
net13 = 0.000000e+00
out = 1.808672e-08
pos = 1.654932e+00
q.xq2.qsky130_fd_pr__pnp_05v5_w0p68l0p68#collcx = 1.588420e-02
q.xq3.qsky130_fd_pr__pnp_05v5_w0p68l0p68#collcx = 5.394901e-01
q.xq4.qsky130_fd_pr__pnp_05v5_w0p68l0p68#collcx = 5.394901e-01
q.xq8.qsky130_fd_pr__pnp_05v5_w0p68l0p68#collcx = 5.394901e-01
q.xq10.qsky130_fd_pr__pnp_05v5_w0p68l0p68#collcx = 5.394901e-01
q.xq12.qsky130_fd_pr__pnp_05v5_w0p68l0p68#collcx = 5.394901e-01
q.xq14.qsky130_fd_pr__pnp_05v5_w0p68l0p68#collcx = 5.394901e-01
q.xq16.qsky130_fd_pr__pnp_05v5_w0p68l0p68#collcx = 5.394901e-01
q.xq18.qsky130_fd_pr__pnp_05v5_w0p68l0p68#collcx = 5.394901e-01
vb = 1.716270e+00
vdd = 2.500000e+00
vs#branch = -4.42429e-02
vt#branch = 0.000000e+00
xc1.a = 0.000000e+00
xc1.b1 = 0.000000e+00
xc3.a = 1.808672e-08
xc3.b1 = 1.808672e-08
xr1.xsky130_fd_pr__res_xhigh_po_0p69.ra = 2.425627e+02
xr2.xsky130_fd_pr__res_xhigh_po_0p69.ra = 9.198387e-01
xr3.xsky130_fd_pr__res_xhigh_po_0p69.ra = 5.626228e-03
xr4.xsky130_fd_pr__res_xhigh_po_0p69.ra = 2.114336e+01
xr5.xsky130_fd_pr__res_xhigh_po_0p69.ra = 2.025164e+00
xr6.xsky130_fd_pr__res_xhigh_po_0p69.ra = 1.698254e-02
xr7.xsky130_fd_pr__res_xhigh_po_0p69.ra = 1.808672e-08
xr8.xsky130_fd_pr__res_xhigh_po_0p69.ra = 1.673065e+00
xr9.xsky130_fd_pr__res_xhigh_po_0p69.ra = 1.922512e-02
Doing analysis at TEMP = 0.000000 and TNOM = 27.000000


No. of Data Rows : 91
Error: no such vector PM
Note: Starting true gmin stepping
Trying gmin =   1.0000E-03 Note: One successful gmin step
Trying gmin =   1.0000E-04 Note: One successful gmin step
Trying gmin =   1.0000E-05 Note: One successful gmin step
Trying gmin =   1.0000E-06 Note: One successful gmin step
Trying gmin =   1.0000E-07 Note: One successful gmin step
Trying gmin =   1.0000E-08 Note: One successful gmin step
Trying gmin =   1.0000E-09 Note: One successful gmin step
Trying gmin =   1.0000E-10 Note: One successful gmin step
Trying gmin =   1.0000E-11 Note: One successful gmin step
Trying gmin =   1.0000E-12 Note: One successful gmin step
Trying gmin =   1.0000E-12 Note: One successful gmin step
Note: True gmin stepping completed
 Reference value :  5.00000e+00Note: Starting true gmin stepping
Trying gmin =   1.0000E-03 Note: One successful gmin step
Trying gmin =   1.0000E-04 Note: One successful gmin step
Trying gmin =   1.0000E-05 Note: One successful gmin step
Trying gmin =   1.0000E-06 Note: One successful gmin step
Trying gmin =   1.0000E-07 Note: One successful gmin step
Trying gmin =   1.0000E-08 Warning: Further gmin increment
Trying gmin =   5.6234E-08 Note: One successful gmin step
Trying gmin =   2.3714E-08 Warning: Further gmin increment
Trying gmin =   4.5316E-08 Note: One successful gmin step
Trying gmin =   3.2781E-08 Warning: Further gmin increment
Trying gmin =   4.1792E-08 Note: One successful gmin step
Trying gmin =   3.7013E-08 Note: One successful gmin step
Trying gmin =   3.0850E-08 Warning: Further gmin increment
Trying gmin =   3.5366E-08 Note: One successful gmin step
Trying gmin =   3.3031E-08 Warning: Further gmin increment
Trying gmin =   3.4767E-08 Note: One successful gmin step
Trying gmin =   3.3888E-08 Warning: Further gmin increment
Trying gmin =   3.4545E-08 Note: One successful gmin step
Trying gmin =   3.4215E-08 Warning: Further gmin increment
Trying gmin =   3.4462E-08 Warning: Further gmin increment
Trying gmin =   3.4524E-08 Note: One successful gmin step
Trying gmin =   3.4493E-08 Note: One successful gmin step
Trying gmin =   3.4447E-08 Warning: Further gmin increment
Trying gmin =   3.4482E-08 Note: One successful gmin step
Trying gmin =   3.4464E-08 Warning: Further gmin increment
Trying gmin =   3.4477E-08 Warning: Further gmin increment
Trying gmin =   3.4481E-08 Note: One successful gmin step
Trying gmin =   3.4479E-08 Warning: Last gmin step failed
Warning: True gmin stepping failed
Note: Starting dynamic gmin stepping
Trying gmin =   1.0000E-03 Note: One successful gmin step
Trying gmin =   1.0000E-04 Note: One successful gmin step
Trying gmin =   1.0000E-05 Warning: Further gmin increment
Trying gmin =   5.6234E-05 Note: One successful gmin step
Trying gmin =   2.3714E-05 Note: One successful gmin step
Trying gmin =   6.4938E-06 Warning: Further gmin increment
Trying gmin =   1.7154E-05 Note: One successful gmin step
Trying gmin =   1.0554E-05 Warning: Further gmin increment
Trying gmin =   1.5193E-05 Note: One successful gmin step
Trying gmin =   1.2663E-05 Warning: Further gmin increment
Trying gmin =   1.4517E-05 Note: One successful gmin step
Trying gmin =   1.3558E-05 Note: One successful gmin step
Trying gmin =   1.2238E-05 Warning: Further gmin increment
Trying gmin =   1.3215E-05 Note: One successful gmin step
Trying gmin =   1.2717E-05 Note: One successful gmin step
Trying gmin =   1.2005E-05 Note: One successful gmin step
Trying gmin =   1.1011E-05 Note: One successful gmin step
Trying gmin =   9.6718E-06 Note: One successful gmin step
Trying gmin =   7.9623E-06 Note: One successful gmin step
Trying gmin =   5.9475E-06 Note: One successful gmin step
Trying gmin =   3.8395E-06 Note: One successful gmin step
Trying gmin =   2.4787E-06 Note: One successful gmin step
Trying gmin =   1.2857E-06 Warning: Further gmin increment
Trying gmin =   2.1035E-06 Note: One successful gmin step
Trying gmin =   1.6445E-06 Note: One successful gmin step
Trying gmin =   1.1368E-06 Warning: Further gmin increment
Trying gmin =   1.4995E-06 Note: One successful gmin step
Trying gmin =   1.3056E-06 Warning: Further gmin increment
Trying gmin =   1.4485E-06 Note: One successful gmin step
Trying gmin =   1.3752E-06 Warning: Further gmin increment
Trying gmin =   1.4298E-06 Note: One successful gmin step
Trying gmin =   1.4022E-06 Note: One successful gmin step
Trying gmin =   1.3619E-06 Note: One successful gmin step
Trying gmin =   1.3035E-06 Note: One successful gmin step
Trying gmin =   1.2206E-06 Note: One successful gmin step
Trying gmin =   1.1060E-06 Note: One successful gmin step
Trying gmin =   9.5398E-07 Note: One successful gmin step
Trying gmin =   7.6421E-07 Note: One successful gmin step
Trying gmin =   5.4793E-07 Note: One successful gmin step
Trying gmin =   3.3265E-07 Note: One successful gmin step
Trying gmin =   1.5736E-07 Note: One successful gmin step
Trying gmin =   5.1197E-08 Note: One successful gmin step
Trying gmin =   9.5011E-09 Note: One successful gmin step
Trying gmin =   9.5011E-10 Note: One successful gmin step
Trying gmin =   9.5011E-11 Note: One successful gmin step
Trying gmin =   9.5011E-12 Note: One successful gmin step
Trying gmin =   1.0000E-12 Note: One successful gmin step
Note: Dynamic gmin stepping completed
 Reference value :  2.80000e+00Note: Starting true gmin stepping
Trying gmin =   1.0000E-03 Note: One successful gmin step
Trying gmin =   1.0000E-04 Note: One successful gmin step
Trying gmin =   1.0000E-05 Note: One successful gmin step
Trying gmin =   1.0000E-06 Note: One successful gmin step
Trying gmin =   1.0000E-07 Note: One successful gmin step
Trying gmin =   1.0000E-08 Note: One successful gmin step
Trying gmin =   3.1623E-09 Note: One successful gmin step
Trying gmin =   5.6234E-10 Note: One successful gmin step
Trying gmin =   5.6234E-11 Note: One successful gmin step
Trying gmin =   5.6234E-12 Note: One successful gmin step
Trying gmin =   1.0000E-12 Note: One successful gmin step
Note: True gmin stepping completed
Note: Starting true gmin stepping
Trying gmin =   1.0000E-03 Note: One successful gmin step
Trying gmin =   1.0000E-04 Note: One successful gmin step
Trying gmin =   1.0000E-05 Note: One successful gmin step
Trying gmin =   1.0000E-06 Note: One successful gmin step
Trying gmin =   1.0000E-07 Note: One successful gmin step
Trying gmin =   1.0000E-08 Note: One successful gmin step
Trying gmin =   1.0000E-09 Warning: Further gmin increment
Trying gmin =   5.6234E-09 Warning: Further gmin increment
Trying gmin =   8.6596E-09 Note: One successful gmin step
Trying gmin =   6.9783E-09 Note: One successful gmin step
Trying gmin =   5.0481E-09 Note: One successful gmin step
Trying gmin =   3.1059E-09 Note: One successful gmin step
Trying gmin =   1.4989E-09 Warning: Further gmin increment
Trying gmin =   2.5887E-09 Note: One successful gmin step
Trying gmin =   1.9699E-09 Note: One successful gmin step
Trying gmin =   1.3075E-09 Note: One successful gmin step
Trying gmin =   7.0711E-10 Note: One successful gmin step
Trying gmin =   2.8121E-10 Note: One successful gmin step
Trying gmin =   7.0527E-11 Note: One successful gmin step
Trying gmin =   8.8581E-12 Note: One successful gmin step
Trying gmin =   1.0000E-12 Note: One successful gmin step
Note: True gmin stepping completed
 Reference value :  1.30000e+00Note: Starting true gmin stepping
Trying gmin =   1.0000E-03 Note: One successful gmin step
Trying gmin =   1.0000E-04 Note: One successful gmin step
Trying gmin =   1.0000E-05 Note: One successful gmin step
Trying gmin =   1.0000E-06 Note: One successful gmin step
Trying gmin =   1.0000E-07 Note: One successful gmin step
Trying gmin =   1.0000E-08 Note: One successful gmin step
Trying gmin =   3.1623E-09 Warning: Further gmin increment
Trying gmin =   7.4989E-09 Note: One successful gmin step
Trying gmin =   4.8697E-09 Note: One successful gmin step
Trying gmin =   3.1623E-09 Note: One successful gmin step
Trying gmin =   1.6548E-09 Warning: Further gmin increment
Trying gmin =   2.6896E-09 Note: One successful gmin step
Trying gmin =   2.1097E-09 Note: One successful gmin step
Trying gmin =   1.4656E-09 Note: One successful gmin step
Trying gmin =   8.4862E-10 Note: One successful gmin step
Trying gmin =   3.7390E-10 Note: One successful gmin step
Trying gmin =   1.0935E-10 Note: One successful gmin step
Trying gmin =   1.7295E-11 Note: One successful gmin step
Trying gmin =   1.7295E-12 Note: One successful gmin step
Trying gmin =   1.0000E-12 Note: One successful gmin step
Note: True gmin stepping completed
 Reference value :  7.60000e-01
Error: measure  pm  (AT) : out of interval
 meas ac pm find ph when vdb(out)=0 failed!

Doing analysis at TEMP = 0.000000 and TNOM = 27.000000


No. of Data Rows : 91
psrr100             =  6.545493e-03
psrr100k            =  6.540945e-03
Doing analysis at TEMP = 0.000000 and TNOM = 27.000000


No. of Data Rows : 86
temp_coeff = 8.257328e+01
Doing analysis at TEMP = 0.000000 and TNOM = 27.000000


No. of Data Rows : 141
vldo_sup_2          =  1.786115e+00
vldo_sup_2_8        =  1.785113e+00
line_reg = 1.252500e-03
Note: No ".plot", ".print", or ".fourier" lines; no simulations run
vin                 =  1.777716e+00
dropout = 1.371600e-02
