 Reference value :  0.00000e+00
No compatibility mode selected!


Circuit: * ldo netlist 

Doing analysis at TEMP = 0.000000 and TNOM = 27.000000


No. of Data Rows : 1
bg_out = 6.056463e-01
inn = 8.194951e-01
inp = 8.192057e-01
l1#branch = -3.46945e-18
ldo_out = 9.140454e-01
m.xm1.msky130_fd_pr__nfet_g5v0d10v5#body = 1.359408e-11
m.xm1.msky130_fd_pr__nfet_g5v0d10v5#dbody = 3.259196e-11
m.xm1.msky130_fd_pr__nfet_g5v0d10v5#sbody = 8.190281e-12
m.xm2.msky130_fd_pr__pfet_g5v0d10v5#body = 2.300000e+00
m.xm2.msky130_fd_pr__pfet_g5v0d10v5#dbody = 2.300000e+00
m.xm2.msky130_fd_pr__pfet_g5v0d10v5#sbody = 2.300000e+00
m.xm3.msky130_fd_pr__pfet_g5v0d10v5#body = 2.300000e+00
m.xm3.msky130_fd_pr__pfet_g5v0d10v5#dbody = 2.300000e+00
m.xm3.msky130_fd_pr__pfet_g5v0d10v5#sbody = 2.300000e+00
m.xm4.msky130_fd_pr__pfet_g5v0d10v5#body = 2.300000e+00
m.xm4.msky130_fd_pr__pfet_g5v0d10v5#dbody = 2.300000e+00
m.xm4.msky130_fd_pr__pfet_g5v0d10v5#sbody = 2.300000e+00
m.xm5.msky130_fd_pr__pfet_g5v0d10v5#body = 2.300000e+00
m.xm5.msky130_fd_pr__pfet_g5v0d10v5#dbody = 2.300000e+00
m.xm5.msky130_fd_pr__pfet_g5v0d10v5#sbody = 2.300000e+00
m.xm6.msky130_fd_pr__nfet_g5v0d10v5#body = 1.074358e-11
m.xm6.msky130_fd_pr__nfet_g5v0d10v5#dbody = 2.685894e-11
m.xm6.msky130_fd_pr__nfet_g5v0d10v5#sbody = 5.371791e-12
m.xm7.msky130_fd_pr__pfet_g5v0d10v5#body = 2.300000e+00
m.xm7.msky130_fd_pr__pfet_g5v0d10v5#dbody = 2.300000e+00
m.xm7.msky130_fd_pr__pfet_g5v0d10v5#sbody = 2.300000e+00
m.xm8.msky130_fd_pr__pfet_g5v0d10v5#body = 2.300000e+00
m.xm8.msky130_fd_pr__pfet_g5v0d10v5#dbody = 2.300000e+00
m.xm8.msky130_fd_pr__pfet_g5v0d10v5#sbody = 2.300000e+00
m.xm9.msky130_fd_pr__nfet_g5v0d10v5#body = 1.595160e-11
m.xm9.msky130_fd_pr__nfet_g5v0d10v5#dbody = 3.982128e-11
m.xm9.msky130_fd_pr__nfet_g5v0d10v5#sbody = 8.033514e-12
m.xm10.msky130_fd_pr__nfet_g5v0d10v5#body = 1.362533e-11
m.xm10.msky130_fd_pr__nfet_g5v0d10v5#dbody = 3.400561e-11
m.xm10.msky130_fd_pr__nfet_g5v0d10v5#sbody = 6.870376e-12
m.xm11.msky130_fd_pr__pfet_g5v0d10v5#body = 2.300000e+00
m.xm11.msky130_fd_pr__pfet_g5v0d10v5#dbody = 2.300000e+00
m.xm11.msky130_fd_pr__pfet_g5v0d10v5#sbody = 2.300000e+00
m.xm12.msky130_fd_pr__pfet_g5v0d10v5#body = 2.300000e+00
m.xm12.msky130_fd_pr__pfet_g5v0d10v5#dbody = 2.300000e+00
m.xm12.msky130_fd_pr__pfet_g5v0d10v5#sbody = 2.300000e+00
m.xm13.msky130_fd_pr__nfet_g5v0d10v5#body = 2.885449e-14
m.xm13.msky130_fd_pr__nfet_g5v0d10v5#dbody = 7.213606e-14
m.xm13.msky130_fd_pr__nfet_g5v0d10v5#sbody = 1.442742e-14
m.xm14.msky130_fd_pr__pfet_g5v0d10v5#body = 2.300000e+00
m.xm14.msky130_fd_pr__pfet_g5v0d10v5#dbody = 2.300000e+00
m.xm14.msky130_fd_pr__pfet_g5v0d10v5#sbody = 2.300000e+00
m.xm15.msky130_fd_pr__nfet_g5v0d10v5#body = 6.022561e-13
m.xm15.msky130_fd_pr__nfet_g5v0d10v5#dbody = 1.505640e-12
m.xm15.msky130_fd_pr__nfet_g5v0d10v5#sbody = 3.011282e-13
m.xm16.msky130_fd_pr__nfet_g5v0d10v5#body = 3.899381e-11
m.xm16.msky130_fd_pr__nfet_g5v0d10v5#dbody = 7.699702e-11
m.xm16.msky130_fd_pr__nfet_g5v0d10v5#sbody = 3.998440e-11
m.xm17.msky130_fd_pr__pfet_g5v0d10v5#body = 2.300000e+00
m.xm17.msky130_fd_pr__pfet_g5v0d10v5#dbody = 2.300000e+00
m.xm17.msky130_fd_pr__pfet_g5v0d10v5#sbody = 2.300000e+00
m.xm18.msky130_fd_pr__nfet_g5v0d10v5#body = 1.087372e-11
m.xm18.msky130_fd_pr__nfet_g5v0d10v5#dbody = 2.718428e-11
m.xm18.msky130_fd_pr__nfet_g5v0d10v5#sbody = 5.436863e-12
m.xm19.msky130_fd_pr__nfet_g5v0d10v5#body = 1.406749e-11
m.xm19.msky130_fd_pr__nfet_g5v0d10v5#dbody = 3.377548e-11
m.xm19.msky130_fd_pr__nfet_g5v0d10v5#sbody = 8.426984e-12
m.xm20.msky130_fd_pr__nfet_g5v0d10v5#body = 1.069320e-11
m.xm20.msky130_fd_pr__nfet_g5v0d10v5#dbody = 2.673300e-11
m.xm20.msky130_fd_pr__nfet_g5v0d10v5#sbody = 5.346607e-12
m.xm22.msky130_fd_pr__nfet_g5v0d10v5#body = 6.966524e-13
m.xm22.msky130_fd_pr__nfet_g5v0d10v5#dbody = 1.741630e-12
m.xm22.msky130_fd_pr__nfet_g5v0d10v5#sbody = 3.483277e-13
m.xm24.msky130_fd_pr__pfet_g5v0d10v5#body = 2.300000e+00
m.xm24.msky130_fd_pr__pfet_g5v0d10v5#dbody = 2.300000e+00
m.xm24.msky130_fd_pr__pfet_g5v0d10v5#sbody = 2.300000e+00
m.xm26.msky130_fd_pr__pfet_g5v0d10v5#body = 2.300000e+00
m.xm26.msky130_fd_pr__pfet_g5v0d10v5#dbody = 2.300000e+00
m.xm26.msky130_fd_pr__pfet_g5v0d10v5#sbody = 2.300000e+00
mir = 1.031792e+00
net1 = 5.987481e-01
net2 = 4.816771e-02
net3 = 5.990915e-01
net4 = 5.572540e-02
net5 = 1.069665e+00
net6 = 8.594786e-01
net7 = 5.987988e-01
net8 = 1.087715e+00
net9 = 1.273816e+00
net10 = 2.308208e-03
net11 = 8.698954e-01
net12 = 8.698954e-01
net13 = 0.000000e+00
out = 8.698954e-01
pos = 6.078314e-01
q.xq2.qsky130_fd_pr__pnp_05v5_w0p68l0p68#collcx = 2.122053e-07
q.xq3.qsky130_fd_pr__pnp_05v5_w0p68l0p68#collcx = 2.092313e-07
q.xq4.qsky130_fd_pr__pnp_05v5_w0p68l0p68#collcx = 2.092313e-07
q.xq8.qsky130_fd_pr__pnp_05v5_w0p68l0p68#collcx = 2.092313e-07
q.xq10.qsky130_fd_pr__pnp_05v5_w0p68l0p68#collcx = 2.092313e-07
q.xq12.qsky130_fd_pr__pnp_05v5_w0p68l0p68#collcx = 2.092313e-07
q.xq14.qsky130_fd_pr__pnp_05v5_w0p68l0p68#collcx = 2.092313e-07
q.xq16.qsky130_fd_pr__pnp_05v5_w0p68l0p68#collcx = 2.092313e-07
q.xq18.qsky130_fd_pr__pnp_05v5_w0p68l0p68#collcx = 2.092313e-07
vb = 8.554544e-01
vdd = 2.300000e+00
vs#branch = -5.08344e-02
vt#branch = 0.000000e+00
xc1.a = 0.000000e+00
xc1.b1 = 0.000000e+00
xc3.a = 8.698954e-01
xc3.b1 = 8.698954e-01
xr1.xsky130_fd_pr__res_xhigh_po_0p69.ra = 6.013368e-01
xr2.xsky130_fd_pr__res_xhigh_po_0p69.ra = 6.016295e-01
xr3.xsky130_fd_pr__res_xhigh_po_0p69.ra = 2.599028e-03
xr4.xsky130_fd_pr__res_xhigh_po_0p69.ra = 5.987495e-01
xr5.xsky130_fd_pr__res_xhigh_po_0p69.ra = 2.597698e-03
xr6.xsky130_fd_pr__res_xhigh_po_0p69.ra = 2.628839e-03
xr7.xsky130_fd_pr__res_xhigh_po_0p69.ra = 8.698954e-01
xr8.xsky130_fd_pr__res_xhigh_po_0p69.ra = 6.123401e-01
xr9.xsky130_fd_pr__res_xhigh_po_0p69.ra = 4.602886e-03
Doing analysis at TEMP = 0.000000 and TNOM = 27.000000


No. of Data Rows : 91
Note: Starting true gmin stepping
Trying gmin =   1.0000E-03 Note: One successful gmin step
Trying gmin =   1.0000E-04 Note: One successful gmin step
Trying gmin =   1.0000E-05 Note: One successful gmin step
Trying gmin =   1.0000E-06 Note: One successful gmin step
Trying gmin =   1.0000E-07 Note: One successful gmin step
Trying gmin =   1.0000E-08 Warning: Further gmin increment
Trying gmin =   5.6234E-08 Note: One successful gmin step
Trying gmin =   2.3714E-08 Note: One successful gmin step
Trying gmin =   6.4938E-09 Warning: Further gmin increment
Trying gmin =   1.7154E-08 Note: One successful gmin step
Trying gmin =   1.2409E-08 Note: One successful gmin step
Trying gmin =   7.6351E-09 Note: One successful gmin step
Trying gmin =   3.6847E-09 Note: One successful gmin step
Trying gmin =   1.2354E-09 Note: One successful gmin step
Trying gmin =   2.3982E-10 Note: One successful gmin step
Trying gmin =   2.3982E-11 Note: One successful gmin step
Trying gmin =   2.3982E-12 Note: One successful gmin step
Trying gmin =   1.0000E-12 Note: One successful gmin step
Note: True gmin stepping completed
 Reference value :  1.44000e+00Note: Starting true gmin stepping
Trying gmin =   1.0000E-03 Note: One successful gmin step
Trying gmin =   1.0000E-04 Note: One successful gmin step
Trying gmin =   1.0000E-05 Note: One successful gmin step
Trying gmin =   1.0000E-06 Note: One successful gmin step
Trying gmin =   1.0000E-07 Note: One successful gmin step
Trying gmin =   1.0000E-08 Note: One successful gmin step
Trying gmin =   1.0000E-09 Note: One successful gmin step
Trying gmin =   1.0000E-10 Note: One successful gmin step
Trying gmin =   1.0000E-11 Note: One successful gmin step
Trying gmin =   1.0000E-12 Note: One successful gmin step
Trying gmin =   1.0000E-12 Note: One successful gmin step
Note: True gmin stepping completed
Note: Starting true gmin stepping
Trying gmin =   1.0000E-03 Note: One successful gmin step
Trying gmin =   1.0000E-04 Note: One successful gmin step
Trying gmin =   1.0000E-05 Note: One successful gmin step
Trying gmin =   1.0000E-06 Note: One successful gmin step
Trying gmin =   1.0000E-07 Note: One successful gmin step
Trying gmin =   1.0000E-08 Note: One successful gmin step
Trying gmin =   1.0000E-09 Note: One successful gmin step
Trying gmin =   1.0000E-10 Note: One successful gmin step
Trying gmin =   1.0000E-11 Note: One successful gmin step
Trying gmin =   1.0000E-12 Warning: Further gmin increment
Trying gmin =   5.6234E-12 Note: One successful gmin step
Trying gmin =   2.3714E-12 Note: One successful gmin step
Trying gmin =   1.0000E-12 Warning: Further gmin increment
Trying gmin =   1.9110E-12 Note: One successful gmin step
Trying gmin =   1.3824E-12 Note: One successful gmin step
Trying gmin =   1.0000E-12 Warning: Further gmin increment
Trying gmin =   1.2749E-12 Note: One successful gmin step
Trying gmin =   1.1291E-12 Note: One successful gmin step
Trying gmin =   1.0000E-12 Note: One successful gmin step
Warning: True gmin stepping failed
Note: Starting dynamic gmin stepping
Trying gmin =   1.0000E-03 Note: One successful gmin step
Trying gmin =   1.0000E-04 Note: One successful gmin step
Trying gmin =   1.0000E-05 Note: One successful gmin step
Trying gmin =   1.0000E-06 Note: One successful gmin step
Trying gmin =   1.0000E-07 Note: One successful gmin step
Trying gmin =   1.0000E-08 Note: One successful gmin step
Trying gmin =   1.0000E-09 Note: One successful gmin step
Trying gmin =   1.0000E-10 Note: One successful gmin step
Trying gmin =   1.0000E-11 Note: One successful gmin step
Trying gmin =   1.0000E-12 Note: One successful gmin step
Trying gmin =   1.0000E-12 Note: One successful gmin step
Note: Dynamic gmin stepping completed
 Reference value :  4.00000e-02pm                  =  9.117848e+01
Doing analysis at TEMP = 0.000000 and TNOM = 27.000000


No. of Data Rows : 91
psrr100             =  -3.380301e+01
psrr100k            =  -4.176277e+00
Doing analysis at TEMP = 0.000000 and TNOM = 27.000000


No. of Data Rows : 86
temp_coeff = 1.352380e+02
Doing analysis at TEMP = 0.000000 and TNOM = 27.000000


No. of Data Rows : 141
vldo_sup_2          =  9.217839e-01
vldo_sup_2_8        =  9.062027e-01
line_reg = 1.947650e-02
Error(parse.c--checkvalid): vin: zero length vector.
Error: RHS "vin-1.764" invalid
Error(parse.c--checkvalid): dropout: zero length vector.
Error: no such vector dropout
Note: No ".plot", ".print", or ".fourier" lines; no simulations run

Error: measure  vin  (WHEN) : out of interval
 meas dc vin when v(ldo_out)=1.764 failed!

