 Reference value :  0.00000e+00
No compatibility mode selected!


Circuit: * ldo netlist 

Doing analysis at TEMP = 85.000000 and TNOM = 27.000000


No. of Data Rows : 1
bg_out = 1.102044e+00
inn = 1.064535e+00
inp = 1.064422e+00
l1#branch = 0.000000e+00
ldo_out = 1.812326e+00
m.xm1.msky130_fd_pr__nfet_g5v0d10v5#body = 3.069534e-11
m.xm1.msky130_fd_pr__nfet_g5v0d10v5#dbody = 6.185629e-11
m.xm1.msky130_fd_pr__nfet_g5v0d10v5#sbody = 3.022942e-11
m.xm2.msky130_fd_pr__pfet_g5v0d10v5#body = 2.500000e+00
m.xm2.msky130_fd_pr__pfet_g5v0d10v5#dbody = 2.500000e+00
m.xm2.msky130_fd_pr__pfet_g5v0d10v5#sbody = 2.500000e+00
m.xm3.msky130_fd_pr__pfet_g5v0d10v5#body = 2.500000e+00
m.xm3.msky130_fd_pr__pfet_g5v0d10v5#dbody = 2.500000e+00
m.xm3.msky130_fd_pr__pfet_g5v0d10v5#sbody = 2.500000e+00
m.xm4.msky130_fd_pr__pfet_g5v0d10v5#body = 2.500000e+00
m.xm4.msky130_fd_pr__pfet_g5v0d10v5#dbody = 2.500000e+00
m.xm4.msky130_fd_pr__pfet_g5v0d10v5#sbody = 2.500000e+00
m.xm5.msky130_fd_pr__pfet_g5v0d10v5#body = 2.500000e+00
m.xm5.msky130_fd_pr__pfet_g5v0d10v5#dbody = 2.500000e+00
m.xm5.msky130_fd_pr__pfet_g5v0d10v5#sbody = 2.500000e+00
m.xm6.msky130_fd_pr__nfet_g5v0d10v5#body = 2.059909e-11
m.xm6.msky130_fd_pr__nfet_g5v0d10v5#dbody = 5.149759e-11
m.xm6.msky130_fd_pr__nfet_g5v0d10v5#sbody = 1.029966e-11
m.xm7.msky130_fd_pr__pfet_g5v0d10v5#body = 2.500000e+00
m.xm7.msky130_fd_pr__pfet_g5v0d10v5#dbody = 2.500000e+00
m.xm7.msky130_fd_pr__pfet_g5v0d10v5#sbody = 2.500000e+00
m.xm8.msky130_fd_pr__pfet_g5v0d10v5#body = 2.500000e+00
m.xm8.msky130_fd_pr__pfet_g5v0d10v5#dbody = 2.500000e+00
m.xm8.msky130_fd_pr__pfet_g5v0d10v5#sbody = 2.500000e+00
m.xm9.msky130_fd_pr__nfet_g5v0d10v5#body = 2.889044e-11
m.xm9.msky130_fd_pr__nfet_g5v0d10v5#dbody = 6.040111e-11
m.xm9.msky130_fd_pr__nfet_g5v0d10v5#sbody = 2.626855e-11
m.xm10.msky130_fd_pr__nfet_g5v0d10v5#body = 2.847498e-11
m.xm10.msky130_fd_pr__nfet_g5v0d10v5#dbody = 5.936334e-11
m.xm10.msky130_fd_pr__nfet_g5v0d10v5#sbody = 2.606082e-11
m.xm11.msky130_fd_pr__pfet_g5v0d10v5#body = 2.500000e+00
m.xm11.msky130_fd_pr__pfet_g5v0d10v5#dbody = 2.500000e+00
m.xm11.msky130_fd_pr__pfet_g5v0d10v5#sbody = 2.500000e+00
m.xm12.msky130_fd_pr__pfet_g5v0d10v5#body = 2.500000e+00
m.xm12.msky130_fd_pr__pfet_g5v0d10v5#dbody = 2.500000e+00
m.xm12.msky130_fd_pr__pfet_g5v0d10v5#sbody = 2.500000e+00
m.xm13.msky130_fd_pr__nfet_g5v0d10v5#body = 4.271063e-12
m.xm13.msky130_fd_pr__nfet_g5v0d10v5#dbody = 1.067759e-11
m.xm13.msky130_fd_pr__nfet_g5v0d10v5#sbody = 2.135597e-12
m.xm14.msky130_fd_pr__pfet_g5v0d10v5#body = 2.500000e+00
m.xm14.msky130_fd_pr__pfet_g5v0d10v5#dbody = 2.500000e+00
m.xm14.msky130_fd_pr__pfet_g5v0d10v5#sbody = 2.500000e+00
m.xm15.msky130_fd_pr__nfet_g5v0d10v5#body = 1.590793e-13
m.xm15.msky130_fd_pr__nfet_g5v0d10v5#dbody = 3.976936e-13
m.xm15.msky130_fd_pr__nfet_g5v0d10v5#sbody = 7.954416e-14
m.xm16.msky130_fd_pr__nfet_g5v0d10v5#body = 5.518525e-11
m.xm16.msky130_fd_pr__nfet_g5v0d10v5#dbody = 1.007212e-10
m.xm16.msky130_fd_pr__nfet_g5v0d10v5#sbody = 6.483455e-11
m.xm17.msky130_fd_pr__pfet_g5v0d10v5#body = 2.500000e+00
m.xm17.msky130_fd_pr__pfet_g5v0d10v5#dbody = 2.500000e+00
m.xm17.msky130_fd_pr__pfet_g5v0d10v5#sbody = 2.500000e+00
m.xm18.msky130_fd_pr__nfet_g5v0d10v5#body = 3.276023e-11
m.xm18.msky130_fd_pr__nfet_g5v0d10v5#dbody = 6.940600e-11
m.xm18.msky130_fd_pr__nfet_g5v0d10v5#sbody = 1.638020e-11
m.xm19.msky130_fd_pr__nfet_g5v0d10v5#body = 3.088152e-11
m.xm19.msky130_fd_pr__nfet_g5v0d10v5#dbody = 6.232161e-11
m.xm19.msky130_fd_pr__nfet_g5v0d10v5#sbody = 3.032251e-11
m.xm20.msky130_fd_pr__nfet_g5v0d10v5#body = 1.466530e-11
m.xm20.msky130_fd_pr__nfet_g5v0d10v5#dbody = 3.666317e-11
m.xm20.msky130_fd_pr__nfet_g5v0d10v5#sbody = 7.332732e-12
m.xm22.msky130_fd_pr__nfet_g5v0d10v5#body = 1.071808e-11
m.xm22.msky130_fd_pr__nfet_g5v0d10v5#dbody = 2.679509e-11
m.xm22.msky130_fd_pr__nfet_g5v0d10v5#sbody = 5.359147e-12
m.xm24.msky130_fd_pr__pfet_g5v0d10v5#body = 2.500000e+00
m.xm24.msky130_fd_pr__pfet_g5v0d10v5#dbody = 2.500000e+00
m.xm24.msky130_fd_pr__pfet_g5v0d10v5#sbody = 2.500000e+00
m.xm26.msky130_fd_pr__pfet_g5v0d10v5#body = 2.500000e+00
m.xm26.msky130_fd_pr__pfet_g5v0d10v5#dbody = 2.500000e+00
m.xm26.msky130_fd_pr__pfet_g5v0d10v5#sbody = 2.500000e+00
mir = 1.435202e+00
net1 = 6.312988e-01
net2 = 3.077420e-04
net3 = 7.051401e-01
net4 = 1.725005e-01
net5 = 1.450092e+00
net6 = 9.591359e-01
net7 = 7.050256e-01
net8 = 1.511714e+00
net9 = 1.544915e+00
net10 = 1.808848e-01
net11 = 1.959537e+00
net12 = 1.959537e+00
net13 = 0.000000e+00
out = 1.959537e+00
pos = 1.102391e+00
q.xq2.qsky130_fd_pr__pnp_05v5_w0p68l0p68#collcx = 3.098018e-03
q.xq3.qsky130_fd_pr__pnp_05v5_w0p68l0p68#collcx = 3.912471e-04
q.xq4.qsky130_fd_pr__pnp_05v5_w0p68l0p68#collcx = 3.912471e-04
q.xq8.qsky130_fd_pr__pnp_05v5_w0p68l0p68#collcx = 3.912471e-04
q.xq10.qsky130_fd_pr__pnp_05v5_w0p68l0p68#collcx = 3.912471e-04
q.xq12.qsky130_fd_pr__pnp_05v5_w0p68l0p68#collcx = 3.912471e-04
q.xq14.qsky130_fd_pr__pnp_05v5_w0p68l0p68#collcx = 3.912471e-04
q.xq16.qsky130_fd_pr__pnp_05v5_w0p68l0p68#collcx = 3.912471e-04
q.xq18.qsky130_fd_pr__pnp_05v5_w0p68l0p68#collcx = 3.912471e-04
vb = 1.011723e+00
vdd = 2.500000e+00
vs#branch = -1.94362e-04
vt#branch = 0.000000e+00
xc1.a = 0.000000e+00
xc1.b1 = 0.000000e+00
xc3.a = 1.959537e+00
xc3.b1 = 1.959537e+00
xr1.xsky130_fd_pr__res_xhigh_po_0p69.ra = 7.082738e-01
xr2.xsky130_fd_pr__res_xhigh_po_0p69.ra = 7.083882e-01
xr3.xsky130_fd_pr__res_xhigh_po_0p69.ra = 1.987314e-03
xr4.xsky130_fd_pr__res_xhigh_po_0p69.ra = 6.325973e-01
xr5.xsky130_fd_pr__res_xhigh_po_0p69.ra = 1.986973e-03
xr6.xsky130_fd_pr__res_xhigh_po_0p69.ra = 3.436409e-03
xr7.xsky130_fd_pr__res_xhigh_po_0p69.ra = 1.959537e+00
xr8.xsky130_fd_pr__res_xhigh_po_0p69.ra = 1.107610e+00
xr9.xsky130_fd_pr__res_xhigh_po_0p69.ra = 5.387909e-03
Doing analysis at TEMP = 85.000000 and TNOM = 27.000000


No. of Data Rows : 91
Note: Starting true gmin stepping
Trying gmin =   1.0000E-03 Note: One successful gmin step
Trying gmin =   1.0000E-04 Note: One successful gmin step
Trying gmin =   1.0000E-05 Note: One successful gmin step
Trying gmin =   1.0000E-06 Note: One successful gmin step
Trying gmin =   1.0000E-07 Note: One successful gmin step
Trying gmin =   1.0000E-08 Warning: Further gmin increment
Trying gmin =   5.6234E-08 Warning: Further gmin increment
Trying gmin =   8.6596E-08 Note: One successful gmin step
Trying gmin =   6.9783E-08 Warning: Further gmin increment
Trying gmin =   8.2047E-08 Note: One successful gmin step
Trying gmin =   7.5667E-08 Note: One successful gmin step
Trying gmin =   6.9783E-08 Note: One successful gmin step
Trying gmin =   6.1804E-08 Note: One successful gmin step
Trying gmin =   5.1513E-08 Note: One successful gmin step
Trying gmin =   3.9198E-08 Note: One successful gmin step
Trying gmin =   2.6019E-08 Note: One successful gmin step
Trying gmin =   1.4071E-08 Note: One successful gmin step
Trying gmin =   5.5958E-09 Note: One successful gmin step
Trying gmin =   1.4034E-09 Note: One successful gmin step
Trying gmin =   1.7627E-10 Note: One successful gmin step
Trying gmin =   1.7627E-11 Note: One successful gmin step
Trying gmin =   1.7627E-12 Note: One successful gmin step
Trying gmin =   1.0000E-12 Note: One successful gmin step
Note: True gmin stepping completed
 Reference value :  2.80000e+00Note: Starting true gmin stepping
Trying gmin =   1.0000E-03 Note: One successful gmin step
Trying gmin =   1.0000E-04 Note: One successful gmin step
Trying gmin =   1.0000E-05 Note: One successful gmin step
Trying gmin =   1.0000E-06 Note: One successful gmin step
Trying gmin =   1.0000E-07 Note: One successful gmin step
Trying gmin =   1.0000E-08 Note: One successful gmin step
Trying gmin =   3.1623E-09 Note: One successful gmin step
Trying gmin =   5.6234E-10 Note: One successful gmin step
Trying gmin =   5.6234E-11 Warning: Further gmin increment
Trying gmin =   3.1623E-10 Note: One successful gmin step
Trying gmin =   1.3335E-10 Warning: Further gmin increment
Trying gmin =   2.5483E-10 Note: One successful gmin step
Trying gmin =   1.8434E-10 Note: One successful gmin step
Trying gmin =   1.1342E-10 Note: One successful gmin step
Trying gmin =   5.4737E-11 Note: One successful gmin step
Trying gmin =   1.8352E-11 Note: One successful gmin step
Trying gmin =   3.5625E-12 Note: One successful gmin step
Trying gmin =   1.0000E-12 Note: One successful gmin step
Note: True gmin stepping completed
Note: Starting true gmin stepping
Trying gmin =   1.0000E-03 Note: One successful gmin step
Trying gmin =   1.0000E-04 Note: One successful gmin step
Trying gmin =   1.0000E-05 Note: One successful gmin step
Trying gmin =   1.0000E-06 Note: One successful gmin step
Trying gmin =   1.0000E-07 Note: One successful gmin step
Trying gmin =   1.0000E-08 Note: One successful gmin step
Trying gmin =   1.0000E-09 Note: One successful gmin step
Trying gmin =   1.0000E-10 Warning: Further gmin increment
Trying gmin =   5.6234E-10 Note: One successful gmin step
Trying gmin =   2.3714E-10 Note: One successful gmin step
Trying gmin =   6.4938E-11 Warning: Further gmin increment
Trying gmin =   1.7154E-10 Note: One successful gmin step
Trying gmin =   1.0554E-10 Note: One successful gmin step
Trying gmin =   5.0937E-11 Note: One successful gmin step
Trying gmin =   1.7077E-11 Note: One successful gmin step
Trying gmin =   3.3152E-12 Note: One successful gmin step
Trying gmin =   1.0000E-12 Note: One successful gmin step
Note: True gmin stepping completed
 Reference value :  1.06000e+00Note: Starting true gmin stepping
Trying gmin =   1.0000E-03 Note: One successful gmin step
Trying gmin =   1.0000E-04 Note: One successful gmin step
Trying gmin =   1.0000E-05 Note: One successful gmin step
Trying gmin =   1.0000E-06 Note: One successful gmin step
Trying gmin =   1.0000E-07 Note: One successful gmin step
Trying gmin =   1.0000E-08 Note: One successful gmin step
Trying gmin =   1.0000E-09 Note: One successful gmin step
Trying gmin =   1.0000E-10 Note: One successful gmin step
Trying gmin =   1.0000E-11 Note: One successful gmin step
Trying gmin =   1.0000E-12 Note: One successful gmin step
Trying gmin =   1.0000E-12 Warning: Last gmin step failed
Warning: True gmin stepping failed
Note: Starting dynamic gmin stepping
Trying gmin =   1.0000E-03 Note: One successful gmin step
Trying gmin =   1.0000E-04 Note: One successful gmin step
Trying gmin =   1.0000E-05 Note: One successful gmin step
Trying gmin =   1.0000E-06 Note: One successful gmin step
Trying gmin =   1.0000E-07 Note: One successful gmin step
Trying gmin =   1.0000E-08 Note: One successful gmin step
Trying gmin =   1.0000E-09 Note: One successful gmin step
Trying gmin =   1.0000E-10 Note: One successful gmin step
Trying gmin =   1.0000E-11 Note: One successful gmin step
Trying gmin =   1.0000E-12 Note: One successful gmin step
Trying gmin =   1.0000E-12 Note: One successful gmin step
Note: Dynamic gmin stepping completed
 Reference value :  2.60000e-01pm                  =  6.664347e+01
Doing analysis at TEMP = 85.000000 and TNOM = 27.000000


No. of Data Rows : 91
psrr100             =  -5.403345e+01
psrr100k            =  -2.650246e+01
Doing analysis at TEMP = 85.000000 and TNOM = 27.000000


No. of Data Rows : 86
temp_coeff = 6.547154e+01
Doing analysis at TEMP = 85.000000 and TNOM = 27.000000


No. of Data Rows : 141
vldo_sup_2          =  1.810770e+00
vldo_sup_2_8        =  1.812819e+00
line_reg = 2.561250e-03
Note: No ".plot", ".print", or ".fourier" lines; no simulations run
vin                 =  1.764114e+00
dropout = 1.140000e-04
