 Reference value :  0.00000e+00
No compatibility mode selected!


Circuit: * ldo netlist 

Doing analysis at TEMP = 85.000000 and TNOM = 27.000000


No. of Data Rows : 1
bg_out = 1.096927e+00
inn = 1.055940e+00
inp = 1.055898e+00
l1#branch = 0.000000e+00
ldo_out = 1.803658e+00
m.xm1.msky130_fd_pr__nfet_g5v0d10v5#body = 2.870535e-11
m.xm1.msky130_fd_pr__nfet_g5v0d10v5#dbody = 5.509235e-11
m.xm1.msky130_fd_pr__nfet_g5v0d10v5#sbody = 3.102371e-11
m.xm2.msky130_fd_pr__pfet_g5v0d10v5#body = 2.300000e+00
m.xm2.msky130_fd_pr__pfet_g5v0d10v5#dbody = 2.300000e+00
m.xm2.msky130_fd_pr__pfet_g5v0d10v5#sbody = 2.300000e+00
m.xm3.msky130_fd_pr__pfet_g5v0d10v5#body = 2.300000e+00
m.xm3.msky130_fd_pr__pfet_g5v0d10v5#dbody = 2.300000e+00
m.xm3.msky130_fd_pr__pfet_g5v0d10v5#sbody = 2.300000e+00
m.xm4.msky130_fd_pr__pfet_g5v0d10v5#body = 2.300000e+00
m.xm4.msky130_fd_pr__pfet_g5v0d10v5#dbody = 2.300000e+00
m.xm4.msky130_fd_pr__pfet_g5v0d10v5#sbody = 2.300000e+00
m.xm5.msky130_fd_pr__pfet_g5v0d10v5#body = 2.300000e+00
m.xm5.msky130_fd_pr__pfet_g5v0d10v5#dbody = 2.300000e+00
m.xm5.msky130_fd_pr__pfet_g5v0d10v5#sbody = 2.300000e+00
m.xm6.msky130_fd_pr__nfet_g5v0d10v5#body = 1.938110e-11
m.xm6.msky130_fd_pr__nfet_g5v0d10v5#dbody = 4.845262e-11
m.xm6.msky130_fd_pr__nfet_g5v0d10v5#sbody = 9.690669e-12
m.xm7.msky130_fd_pr__pfet_g5v0d10v5#body = 2.300000e+00
m.xm7.msky130_fd_pr__pfet_g5v0d10v5#dbody = 2.300000e+00
m.xm7.msky130_fd_pr__pfet_g5v0d10v5#sbody = 2.300000e+00
m.xm8.msky130_fd_pr__pfet_g5v0d10v5#body = 2.300000e+00
m.xm8.msky130_fd_pr__pfet_g5v0d10v5#dbody = 2.300000e+00
m.xm8.msky130_fd_pr__pfet_g5v0d10v5#sbody = 2.300000e+00
m.xm9.msky130_fd_pr__nfet_g5v0d10v5#body = 2.684675e-11
m.xm9.msky130_fd_pr__nfet_g5v0d10v5#dbody = 5.335598e-11
m.xm9.msky130_fd_pr__nfet_g5v0d10v5#sbody = 2.718428e-11
m.xm10.msky130_fd_pr__nfet_g5v0d10v5#body = 2.663330e-11
m.xm10.msky130_fd_pr__nfet_g5v0d10v5#dbody = 5.282234e-11
m.xm10.msky130_fd_pr__nfet_g5v0d10v5#sbody = 2.707755e-11
m.xm11.msky130_fd_pr__pfet_g5v0d10v5#body = 2.300000e+00
m.xm11.msky130_fd_pr__pfet_g5v0d10v5#dbody = 2.300000e+00
m.xm11.msky130_fd_pr__pfet_g5v0d10v5#sbody = 2.300000e+00
m.xm12.msky130_fd_pr__pfet_g5v0d10v5#body = 2.300000e+00
m.xm12.msky130_fd_pr__pfet_g5v0d10v5#dbody = 2.300000e+00
m.xm12.msky130_fd_pr__pfet_g5v0d10v5#sbody = 2.300000e+00
m.xm13.msky130_fd_pr__nfet_g5v0d10v5#body = 5.233324e-12
m.xm13.msky130_fd_pr__nfet_g5v0d10v5#dbody = 1.308324e-11
m.xm13.msky130_fd_pr__nfet_g5v0d10v5#sbody = 2.616733e-12
m.xm14.msky130_fd_pr__pfet_g5v0d10v5#body = 2.300000e+00
m.xm14.msky130_fd_pr__pfet_g5v0d10v5#dbody = 2.300000e+00
m.xm14.msky130_fd_pr__pfet_g5v0d10v5#sbody = 2.300000e+00
m.xm15.msky130_fd_pr__nfet_g5v0d10v5#body = 3.278533e-14
m.xm15.msky130_fd_pr__nfet_g5v0d10v5#dbody = 8.196122e-14
m.xm15.msky130_fd_pr__nfet_g5v0d10v5#sbody = 1.639477e-14
m.xm16.msky130_fd_pr__nfet_g5v0d10v5#body = 5.245186e-11
m.xm16.msky130_fd_pr__nfet_g5v0d10v5#dbody = 9.422854e-11
m.xm16.msky130_fd_pr__nfet_g5v0d10v5#sbody = 6.312705e-11
m.xm17.msky130_fd_pr__pfet_g5v0d10v5#body = 2.300000e+00
m.xm17.msky130_fd_pr__pfet_g5v0d10v5#dbody = 2.300000e+00
m.xm17.msky130_fd_pr__pfet_g5v0d10v5#sbody = 2.300000e+00
m.xm18.msky130_fd_pr__nfet_g5v0d10v5#body = 1.918939e-11
m.xm18.msky130_fd_pr__nfet_g5v0d10v5#dbody = 4.797243e-11
m.xm18.msky130_fd_pr__nfet_g5v0d10v5#sbody = 9.594776e-12
m.xm19.msky130_fd_pr__nfet_g5v0d10v5#body = 2.876815e-11
m.xm19.msky130_fd_pr__nfet_g5v0d10v5#dbody = 5.524934e-11
m.xm19.msky130_fd_pr__nfet_g5v0d10v5#sbody = 3.105510e-11
m.xm20.msky130_fd_pr__nfet_g5v0d10v5#body = 1.279108e-11
m.xm20.msky130_fd_pr__nfet_g5v0d10v5#dbody = 3.197762e-11
m.xm20.msky130_fd_pr__nfet_g5v0d10v5#sbody = 6.395620e-12
m.xm22.msky130_fd_pr__nfet_g5v0d10v5#body = 1.162916e-11
m.xm22.msky130_fd_pr__nfet_g5v0d10v5#dbody = 2.907278e-11
m.xm22.msky130_fd_pr__nfet_g5v0d10v5#sbody = 5.814693e-12
m.xm24.msky130_fd_pr__pfet_g5v0d10v5#body = 2.300000e+00
m.xm24.msky130_fd_pr__pfet_g5v0d10v5#dbody = 2.300000e+00
m.xm24.msky130_fd_pr__pfet_g5v0d10v5#sbody = 2.300000e+00
m.xm26.msky130_fd_pr__pfet_g5v0d10v5#body = 2.300000e+00
m.xm26.msky130_fd_pr__pfet_g5v0d10v5#dbody = 2.300000e+00
m.xm26.msky130_fd_pr__pfet_g5v0d10v5#sbody = 2.300000e+00
mir = 1.209483e+00
net1 = 6.240887e-01
net2 = 6.342846e-05
net3 = 6.981275e-01
net4 = 2.469864e-01
net5 = 1.214506e+00
net6 = 8.667352e-01
net7 = 6.980838e-01
net8 = 1.291945e+00
net9 = 1.309022e+00
net10 = 2.622618e-01
net11 = 1.378650e+00
net12 = 1.378650e+00
net13 = 0.000000e+00
out = 1.378650e+00
pos = 1.097119e+00
q.xq2.qsky130_fd_pr__pnp_05v5_w0p68l0p68#collcx = 3.165883e-03
q.xq3.qsky130_fd_pr__pnp_05v5_w0p68l0p68#collcx = 3.984765e-04
q.xq4.qsky130_fd_pr__pnp_05v5_w0p68l0p68#collcx = 3.984765e-04
q.xq8.qsky130_fd_pr__pnp_05v5_w0p68l0p68#collcx = 3.984765e-04
q.xq10.qsky130_fd_pr__pnp_05v5_w0p68l0p68#collcx = 3.984765e-04
q.xq12.qsky130_fd_pr__pnp_05v5_w0p68l0p68#collcx = 3.984765e-04
q.xq14.qsky130_fd_pr__pnp_05v5_w0p68l0p68#collcx = 3.984765e-04
q.xq16.qsky130_fd_pr__pnp_05v5_w0p68l0p68#collcx = 3.984765e-04
q.xq18.qsky130_fd_pr__pnp_05v5_w0p68l0p68#collcx = 3.984765e-04
vb = 8.668233e-01
vdd = 2.300000e+00
vs#branch = -1.01655e-02
vt#branch = 0.000000e+00
xc1.a = 0.000000e+00
xc1.b1 = 0.000000e+00
xc3.a = 1.378650e+00
xc3.b1 = 1.378650e+00
xr1.xsky130_fd_pr__res_xhigh_po_0p69.ra = 7.013174e-01
xr2.xsky130_fd_pr__res_xhigh_po_0p69.ra = 7.013611e-01
xr3.xsky130_fd_pr__res_xhigh_po_0p69.ra = 1.966409e-03
xr4.xsky130_fd_pr__res_xhigh_po_0p69.ra = 6.253918e-01
xr5.xsky130_fd_pr__res_xhigh_po_0p69.ra = 1.966279e-03
xr6.xsky130_fd_pr__res_xhigh_po_0p69.ra = 3.419086e-03
xr7.xsky130_fd_pr__res_xhigh_po_0p69.ra = 1.378650e+00
xr8.xsky130_fd_pr__res_xhigh_po_0p69.ra = 1.102312e+00
xr9.xsky130_fd_pr__res_xhigh_po_0p69.ra = 5.359944e-03
Doing analysis at TEMP = 85.000000 and TNOM = 27.000000


No. of Data Rows : 91
Error: no such vector PM
Note: Starting true gmin stepping
Trying gmin =   1.0000E-03 Note: One successful gmin step
Trying gmin =   1.0000E-04 Note: One successful gmin step
Trying gmin =   1.0000E-05 Note: One successful gmin step
Trying gmin =   1.0000E-06 Note: One successful gmin step
Trying gmin =   1.0000E-07 Warning: Further gmin increment
Trying gmin =   5.6234E-07 Note: One successful gmin step
Trying gmin =   2.3714E-07 Note: One successful gmin step
Trying gmin =   6.4938E-08 Warning: Further gmin increment
Trying gmin =   1.7154E-07 Note: One successful gmin step
Trying gmin =   1.0554E-07 Warning: Further gmin increment
Trying gmin =   1.5193E-07 Note: One successful gmin step
Trying gmin =   1.2663E-07 Note: One successful gmin step
Trying gmin =   9.6358E-08 Warning: Further gmin increment
Trying gmin =   1.1827E-07 Note: One successful gmin step
Trying gmin =   1.0675E-07 Warning: Further gmin increment
Trying gmin =   1.1528E-07 Note: One successful gmin step
Trying gmin =   1.1093E-07 Note: One successful gmin step
Trying gmin =   1.0472E-07 Warning: Further gmin increment
Trying gmin =   1.0935E-07 Warning: Further gmin increment
Trying gmin =   1.1054E-07 Warning: Further gmin increment
Trying gmin =   1.1083E-07 Warning: Further gmin increment
Trying gmin =   1.1091E-07 Note: One successful gmin step
Trying gmin =   1.1087E-07 Note: One successful gmin step
Trying gmin =   1.1082E-07 Warning: Further gmin increment
Trying gmin =   1.1086E-07 Note: One successful gmin step
Trying gmin =   1.1084E-07 Warning: Further gmin increment
Trying gmin =   1.1085E-07 Note: One successful gmin step
Trying gmin =   1.1084E-07 Warning: Further gmin increment
Trying gmin =   1.1085E-07 Note: One successful gmin step
Trying gmin =   1.1085E-07 Note: One successful gmin step
Trying gmin =   1.1084E-07 Warning: Last gmin step failed
Warning: True gmin stepping failed
Note: Starting dynamic gmin stepping
Trying gmin =   1.0000E-03 Note: One successful gmin step
Trying gmin =   1.0000E-04 Note: One successful gmin step
Trying gmin =   1.0000E-05 Note: One successful gmin step
Trying gmin =   1.0000E-06 Warning: Further gmin increment
Trying gmin =   5.6234E-06 Note: One successful gmin step
Trying gmin =   2.3714E-06 Note: One successful gmin step
Trying gmin =   1.5399E-06 Warning: Further gmin increment
Trying gmin =   2.1288E-06 Warning: Further gmin increment
Trying gmin =   2.3082E-06 Note: One successful gmin step
Trying gmin =   2.2167E-06 Note: One successful gmin step
Trying gmin =   2.0861E-06 Note: One successful gmin step
Trying gmin =   1.9045E-06 Note: One successful gmin step
Trying gmin =   1.6613E-06 Note: One successful gmin step
Trying gmin =   1.3535E-06 Note: One successful gmin step
Trying gmin =   9.9537E-07 Note: One successful gmin step
Trying gmin =   6.2771E-07 Note: One successful gmin step
Trying gmin =   3.1436E-07 Note: One successful gmin step
Trying gmin =   1.1141E-07 Note: One successful gmin step
Trying gmin =   2.3504E-08 Note: One successful gmin step
Trying gmin =   2.3504E-09 Note: One successful gmin step
Trying gmin =   2.3504E-10 Note: One successful gmin step
Trying gmin =   2.3504E-11 Note: One successful gmin step
Trying gmin =   2.3504E-12 Note: One successful gmin step
Trying gmin =   1.0000E-12 Note: One successful gmin step
Note: Dynamic gmin stepping completed
 Reference value :  2.80000e+00Note: Starting true gmin stepping
Trying gmin =   1.0000E-03 Note: One successful gmin step
Trying gmin =   1.0000E-04 Note: One successful gmin step
Trying gmin =   1.0000E-05 Note: One successful gmin step
Trying gmin =   1.0000E-06 Note: One successful gmin step
Trying gmin =   1.0000E-07 Note: One successful gmin step
Trying gmin =   1.0000E-08 Warning: Further gmin increment
Trying gmin =   5.6234E-08 Note: One successful gmin step
Trying gmin =   2.3714E-08 Warning: Further gmin increment
Trying gmin =   4.5316E-08 Note: One successful gmin step
Trying gmin =   3.2781E-08 Note: One successful gmin step
Trying gmin =   2.0169E-08 Warning: Further gmin increment
Trying gmin =   2.9033E-08 Note: One successful gmin step
Trying gmin =   2.4199E-08 Note: One successful gmin step
Trying gmin =   1.8414E-08 Note: One successful gmin step
Trying gmin =   1.2222E-08 Note: One successful gmin step
Trying gmin =   6.6098E-09 Note: One successful gmin step
Trying gmin =   2.6287E-09 Note: One successful gmin step
Trying gmin =   6.5927E-10 Note: One successful gmin step
Trying gmin =   8.2803E-11 Note: One successful gmin step
Trying gmin =   8.2803E-12 Note: One successful gmin step
Trying gmin =   1.0000E-12 Note: One successful gmin step
Note: True gmin stepping completed
 Reference value :  1.14000e+00Note: Starting true gmin stepping
Trying gmin =   1.0000E-03 Note: One successful gmin step
Trying gmin =   1.0000E-04 Note: One successful gmin step
Trying gmin =   1.0000E-05 Note: One successful gmin step
Trying gmin =   1.0000E-06 Note: One successful gmin step
Trying gmin =   1.0000E-07 Note: One successful gmin step
Trying gmin =   1.0000E-08 Warning: Further gmin increment
Trying gmin =   5.6234E-08 Note: One successful gmin step
Trying gmin =   2.3714E-08 Note: One successful gmin step
Trying gmin =   1.0000E-08 Warning: Further gmin increment
Trying gmin =   1.9110E-08 Note: One successful gmin step
Trying gmin =   1.3824E-08 Note: One successful gmin step
Trying gmin =   8.5053E-09 Note: One successful gmin step
Trying gmin =   4.1047E-09 Note: One successful gmin step
Trying gmin =   1.3762E-09 Note: One successful gmin step
Trying gmin =   2.6715E-10 Note: One successful gmin step
Trying gmin =   2.6715E-11 Note: One successful gmin step
Trying gmin =   2.6715E-12 Note: One successful gmin step
Trying gmin =   1.0000E-12 Note: One successful gmin step
Note: True gmin stepping completed

Error: measure  pm  (AT) : out of interval
 meas ac pm find p when vdb(ldo_out)=0 failed!

Doing analysis at TEMP = 85.000000 and TNOM = 27.000000


No. of Data Rows : 91
psrr100             =  -5.300277e+01
psrr100k            =  -2.727315e+01
Doing analysis at TEMP = 85.000000 and TNOM = 27.000000


No. of Data Rows : 86
temp_coeff = 5.152161e+01
Doing analysis at TEMP = 85.000000 and TNOM = 27.000000


No. of Data Rows : 141
vldo_sup_2          =  1.802743e+00
vldo_sup_2_8        =  1.804461e+00
line_reg = 2.147500e-03
Note: No ".plot", ".print", or ".fourier" lines; no simulations run
vin                 =  1.779970e+00
dropout = 1.597000e-02
