 Reference value :  0.00000e+00
No compatibility mode selected!


Circuit: * ldo netlist 

Doing analysis at TEMP = 85.000000 and TNOM = 27.000000


No. of Data Rows : 1
bg_out = 1.101790e+00
inn = 1.068722e+00
inp = 1.068559e+00
l1#branch = 2.775558e-17
ldo_out = 1.811534e+00
m.xm1.msky130_fd_pr__nfet_g5v0d10v5#body = 2.383944e-11
m.xm1.msky130_fd_pr__nfet_g5v0d10v5#dbody = 4.433524e-11
m.xm1.msky130_fd_pr__nfet_g5v0d10v5#sbody = 2.718307e-11
m.xm2.msky130_fd_pr__pfet_g5v0d10v5#body = 2.100000e+00
m.xm2.msky130_fd_pr__pfet_g5v0d10v5#dbody = 2.100000e+00
m.xm2.msky130_fd_pr__pfet_g5v0d10v5#sbody = 2.100000e+00
m.xm3.msky130_fd_pr__pfet_g5v0d10v5#body = 2.100000e+00
m.xm3.msky130_fd_pr__pfet_g5v0d10v5#dbody = 2.100000e+00
m.xm3.msky130_fd_pr__pfet_g5v0d10v5#sbody = 2.100000e+00
m.xm4.msky130_fd_pr__pfet_g5v0d10v5#body = 2.100000e+00
m.xm4.msky130_fd_pr__pfet_g5v0d10v5#dbody = 2.100000e+00
m.xm4.msky130_fd_pr__pfet_g5v0d10v5#sbody = 2.100000e+00
m.xm5.msky130_fd_pr__pfet_g5v0d10v5#body = 2.100000e+00
m.xm5.msky130_fd_pr__pfet_g5v0d10v5#dbody = 2.100000e+00
m.xm5.msky130_fd_pr__pfet_g5v0d10v5#sbody = 2.100000e+00
m.xm6.msky130_fd_pr__nfet_g5v0d10v5#body = 2.034576e-11
m.xm6.msky130_fd_pr__nfet_g5v0d10v5#dbody = 5.086427e-11
m.xm6.msky130_fd_pr__nfet_g5v0d10v5#sbody = 1.017299e-11
m.xm7.msky130_fd_pr__pfet_g5v0d10v5#body = 2.100000e+00
m.xm7.msky130_fd_pr__pfet_g5v0d10v5#dbody = 2.100000e+00
m.xm7.msky130_fd_pr__pfet_g5v0d10v5#sbody = 2.100000e+00
m.xm8.msky130_fd_pr__pfet_g5v0d10v5#body = 2.100000e+00
m.xm8.msky130_fd_pr__pfet_g5v0d10v5#dbody = 2.100000e+00
m.xm8.msky130_fd_pr__pfet_g5v0d10v5#sbody = 2.100000e+00
m.xm9.msky130_fd_pr__nfet_g5v0d10v5#body = 2.205730e-11
m.xm9.msky130_fd_pr__nfet_g5v0d10v5#dbody = 4.301313e-11
m.xm9.msky130_fd_pr__nfet_g5v0d10v5#sbody = 2.315876e-11
m.xm10.msky130_fd_pr__nfet_g5v0d10v5#body = 2.170404e-11
m.xm10.msky130_fd_pr__nfet_g5v0d10v5#dbody = 4.212998e-11
m.xm10.msky130_fd_pr__nfet_g5v0d10v5#sbody = 2.298213e-11
m.xm11.msky130_fd_pr__pfet_g5v0d10v5#body = 2.100000e+00
m.xm11.msky130_fd_pr__pfet_g5v0d10v5#dbody = 2.100000e+00
m.xm11.msky130_fd_pr__pfet_g5v0d10v5#sbody = 2.100000e+00
m.xm12.msky130_fd_pr__pfet_g5v0d10v5#body = 2.100000e+00
m.xm12.msky130_fd_pr__pfet_g5v0d10v5#dbody = 2.100000e+00
m.xm12.msky130_fd_pr__pfet_g5v0d10v5#sbody = 2.100000e+00
m.xm13.msky130_fd_pr__nfet_g5v0d10v5#body = 4.422178e-12
m.xm13.msky130_fd_pr__nfet_g5v0d10v5#dbody = 1.105538e-11
m.xm13.msky130_fd_pr__nfet_g5v0d10v5#sbody = 2.211153e-12
m.xm14.msky130_fd_pr__pfet_g5v0d10v5#body = 2.100000e+00
m.xm14.msky130_fd_pr__pfet_g5v0d10v5#dbody = 2.100000e+00
m.xm14.msky130_fd_pr__pfet_g5v0d10v5#sbody = 2.100000e+00
m.xm15.msky130_fd_pr__nfet_g5v0d10v5#body = 5.474413e-15
m.xm15.msky130_fd_pr__nfet_g5v0d10v5#dbody = 1.368585e-14
m.xm15.msky130_fd_pr__nfet_g5v0d10v5#sbody = 2.737386e-15
m.xm16.msky130_fd_pr__nfet_g5v0d10v5#body = 5.021535e-11
m.xm16.msky130_fd_pr__nfet_g5v0d10v5#dbody = 8.821400e-11
m.xm16.msky130_fd_pr__nfet_g5v0d10v5#sbody = 6.243205e-11
m.xm17.msky130_fd_pr__pfet_g5v0d10v5#body = 2.100000e+00
m.xm17.msky130_fd_pr__pfet_g5v0d10v5#dbody = 2.100000e+00
m.xm17.msky130_fd_pr__pfet_g5v0d10v5#sbody = 2.100000e+00
m.xm18.msky130_fd_pr__nfet_g5v0d10v5#body = 1.890836e-11
m.xm18.msky130_fd_pr__nfet_g5v0d10v5#dbody = 4.727055e-11
m.xm18.msky130_fd_pr__nfet_g5v0d10v5#sbody = 9.454262e-12
m.xm19.msky130_fd_pr__nfet_g5v0d10v5#body = 2.403719e-11
m.xm19.msky130_fd_pr__nfet_g5v0d10v5#dbody = 4.482963e-11
m.xm19.msky130_fd_pr__nfet_g5v0d10v5#sbody = 2.728195e-11
m.xm20.msky130_fd_pr__nfet_g5v0d10v5#body = 1.434899e-11
m.xm20.msky130_fd_pr__nfet_g5v0d10v5#dbody = 3.587240e-11
m.xm20.msky130_fd_pr__nfet_g5v0d10v5#sbody = 7.174573e-12
m.xm22.msky130_fd_pr__nfet_g5v0d10v5#body = 1.091565e-11
m.xm22.msky130_fd_pr__nfet_g5v0d10v5#dbody = 2.728903e-11
m.xm22.msky130_fd_pr__nfet_g5v0d10v5#sbody = 5.457932e-12
m.xm24.msky130_fd_pr__pfet_g5v0d10v5#body = 2.100000e+00
m.xm24.msky130_fd_pr__pfet_g5v0d10v5#dbody = 2.100000e+00
m.xm24.msky130_fd_pr__pfet_g5v0d10v5#sbody = 2.100000e+00
m.xm26.msky130_fd_pr__pfet_g5v0d10v5#body = 2.100000e+00
m.xm26.msky130_fd_pr__pfet_g5v0d10v5#dbody = 2.100000e+00
m.xm26.msky130_fd_pr__pfet_g5v0d10v5#sbody = 2.100000e+00
mir = 8.723680e-01
net1 = 6.368031e-01
net2 = 1.055110e-05
net3 = 7.098594e-01
net4 = 1.877765e-01
net5 = 8.881883e-01
net6 = 9.397592e-01
net7 = 7.096938e-01
net8 = 9.586874e-01
net9 = 9.869481e-01
net10 = 1.936375e-01
net11 = 1.352046e+00
net12 = 1.352046e+00
net13 = 0.000000e+00
out = 1.352046e+00
pos = 1.102144e+00
q.xq2.qsky130_fd_pr__pnp_05v5_w0p68l0p68#collcx = 2.800731e-03
q.xq3.qsky130_fd_pr__pnp_05v5_w0p68l0p68#collcx = 3.563572e-04
q.xq4.qsky130_fd_pr__pnp_05v5_w0p68l0p68#collcx = 3.563572e-04
q.xq8.qsky130_fd_pr__pnp_05v5_w0p68l0p68#collcx = 3.563572e-04
q.xq10.qsky130_fd_pr__pnp_05v5_w0p68l0p68#collcx = 3.563572e-04
q.xq12.qsky130_fd_pr__pnp_05v5_w0p68l0p68#collcx = 3.563572e-04
q.xq14.qsky130_fd_pr__pnp_05v5_w0p68l0p68#collcx = 3.563572e-04
q.xq16.qsky130_fd_pr__pnp_05v5_w0p68l0p68#collcx = 3.563572e-04
q.xq18.qsky130_fd_pr__pnp_05v5_w0p68l0p68#collcx = 3.563572e-04
vb = 9.873073e-01
vdd = 2.100000e+00
vs#branch = -1.87345e-04
vt#branch = 0.000000e+00
xc1.a = 0.000000e+00
xc1.b1 = 0.000000e+00
xc3.a = 1.352046e+00
xc3.b1 = 1.352046e+00
xr1.xsky130_fd_pr__res_xhigh_po_0p69.ra = 7.156581e-01
xr2.xsky130_fd_pr__res_xhigh_po_0p69.ra = 7.158237e-01
xr3.xsky130_fd_pr__res_xhigh_po_0p69.ra = 3.676083e-03
xr4.xsky130_fd_pr__res_xhigh_po_0p69.ra = 6.391631e-01
xr5.xsky130_fd_pr__res_xhigh_po_0p69.ra = 3.675175e-03
xr6.xsky130_fd_pr__res_xhigh_po_0p69.ra = 6.310071e-03
xr7.xsky130_fd_pr__res_xhigh_po_0p69.ra = 1.352046e+00
xr8.xsky130_fd_pr__res_xhigh_po_0p69.ra = 1.111730e+00
xr9.xsky130_fd_pr__res_xhigh_po_0p69.ra = 9.896938e-03
Doing analysis at TEMP = 85.000000 and TNOM = 27.000000


No. of Data Rows : 91
Note: Starting true gmin stepping
Trying gmin =   1.0000E-03 Note: One successful gmin step
Trying gmin =   1.0000E-04 Note: One successful gmin step
Trying gmin =   1.0000E-05 Note: One successful gmin step
Trying gmin =   1.0000E-06 Note: One successful gmin step
Trying gmin =   1.0000E-07 Warning: Further gmin increment
Trying gmin =   5.6234E-07 Note: One successful gmin step
Trying gmin =   2.3714E-07 Note: One successful gmin step
Trying gmin =   6.4938E-08 Warning: Further gmin increment
Trying gmin =   1.7154E-07 Note: One successful gmin step
Trying gmin =   1.0554E-07 Warning: Further gmin increment
Trying gmin =   1.5193E-07 Warning: Further gmin increment
Trying gmin =   1.6641E-07 Note: One successful gmin step
Trying gmin =   1.5901E-07 Note: One successful gmin step
Trying gmin =   1.4851E-07 Warning: Further gmin increment
Trying gmin =   1.5631E-07 Note: One successful gmin step
Trying gmin =   1.5236E-07 Warning: Further gmin increment
Trying gmin =   1.5532E-07 Note: One successful gmin step
Trying gmin =   1.5383E-07 Note: One successful gmin step
Trying gmin =   1.5163E-07 Warning: Further gmin increment
Trying gmin =   1.5328E-07 Warning: Further gmin increment
Trying gmin =   1.5369E-07 Warning: Further gmin increment
Trying gmin =   1.5380E-07 Note: One successful gmin step
Trying gmin =   1.5375E-07 Warning: Further gmin increment
Trying gmin =   1.5378E-07 Note: One successful gmin step
Trying gmin =   1.5377E-07 Note: One successful gmin step
Trying gmin =   1.5374E-07 Warning: Further gmin increment
Trying gmin =   1.5376E-07 Note: One successful gmin step
Trying gmin =   1.5375E-07 Warning: Further gmin increment
Trying gmin =   1.5376E-07 Warning: Last gmin step failed
Warning: True gmin stepping failed
Note: Starting dynamic gmin stepping
Trying gmin =   1.0000E-03 Note: One successful gmin step
Trying gmin =   1.0000E-04 Note: One successful gmin step
Trying gmin =   1.0000E-05 Note: One successful gmin step
Trying gmin =   1.0000E-06 Note: One successful gmin step
Trying gmin =   1.0000E-07 Warning: Further gmin increment
Trying gmin =   5.6234E-07 Warning: Further gmin increment
Trying gmin =   8.6596E-07 Note: One successful gmin step
Trying gmin =   6.9783E-07 Warning: Further gmin increment
Trying gmin =   8.2047E-07 Note: One successful gmin step
Trying gmin =   7.5667E-07 Note: One successful gmin step
Trying gmin =   6.7015E-07 Warning: Further gmin increment
Trying gmin =   7.3404E-07 Note: One successful gmin step
Trying gmin =   7.0137E-07 Warning: Further gmin increment
Trying gmin =   7.2574E-07 Warning: Further gmin increment
Trying gmin =   7.3196E-07 Warning: Further gmin increment
Trying gmin =   7.3352E-07 Note: One successful gmin step
Trying gmin =   7.3274E-07 Warning: Further gmin increment
Trying gmin =   7.3333E-07 Note: One successful gmin step
Trying gmin =   7.3303E-07 Warning: Further gmin increment
Trying gmin =   7.3325E-07 Warning: Further gmin increment
Trying gmin =   7.3331E-07 Note: One successful gmin step
Trying gmin =   7.3328E-07 Warning: Last gmin step failed
Warning: Dynamic gmin stepping failed
Note: Starting source stepping
Supplies reduced to   0.0000% Note: One successful source step
Supplies reduced to   0.1000% Note: One successful source step
Supplies reduced to   0.2000% Note: One successful source step
Supplies reduced to   0.3500% Note: One successful source step
Supplies reduced to   0.5750% Note: One successful source step
Supplies reduced to   0.9125% Note: One successful source step
Supplies reduced to   1.4188% Note: One successful source step
Supplies reduced to   2.1781% Note: One successful source step
Supplies reduced to   3.3172% Note: One successful source step
Supplies reduced to   5.0258% Note: One successful source step
Supplies reduced to   7.5887% Note: One successful source step
Supplies reduced to  11.4330% Note: One successful source step
Supplies reduced to  17.1995% Note: One successful source step
Supplies reduced to  25.8493% Supplies reduced to  17.1995% Note: One successful source step
Supplies reduced to  18.1995% Note: One successful source step
Supplies reduced to  19.6995% Note: One successful source step
Supplies reduced to  21.9495% Note: One successful source step
Supplies reduced to  25.3245% Supplies reduced to  21.9495% Note: One successful source step
Supplies reduced to  22.4558% Note: One successful source step
Supplies reduced to  23.2151% Note: One successful source step
Supplies reduced to  23.5948% Note: One successful source step
Supplies reduced to  24.1644% Note: One successful source step
Supplies reduced to  25.0187% Note: One successful source step
Supplies reduced to  26.3001% Note: One successful source step
Supplies reduced to  28.2223% Note: One successful source step
Supplies reduced to  31.1055% Note: One successful source step
Supplies reduced to  35.4304% Note: One successful source step
Supplies reduced to  41.9177% Note: One successful source step
Supplies reduced to  51.6487% Note: One successful source step
Supplies reduced to  61.3797% Supplies reduced to  51.6487% Note: One successful source step
Supplies reduced to  52.6487% Note: One successful source step
Supplies reduced to  54.1487% Note: One successful source step
Supplies reduced to  56.3987% Note: One successful source step
Supplies reduced to  59.7737% Note: One successful source step
Supplies reduced to  64.8362% Supplies reduced to  59.7737% Note: One successful source step
Supplies reduced to  60.5331% Supplies reduced to  59.7737% Note: One successful source step
Supplies reduced to  59.8876% Note: One successful source step
Supplies reduced to  60.0585% Note: One successful source step
Supplies reduced to  60.3147% Note: One successful source step
Supplies reduced to  60.6992% Supplies reduced to  60.3147% Note: One successful source step
Supplies reduced to  60.3724% Note: One successful source step
Supplies reduced to  60.4589% Supplies reduced to  60.3724% Note: One successful source step
Supplies reduced to  60.3854% Note: One successful source step
Supplies reduced to  60.4048% Note: One successful source step
Supplies reduced to  60.4340% Supplies reduced to  60.4048% Note: One successful source step
Supplies reduced to  60.4092% Note: One successful source step
Supplies reduced to  60.4158% Note: One successful source step
Supplies reduced to  60.4256% Note: One successful source step
Supplies reduced to  60.4404% Supplies reduced to  60.4256% Note: One successful source step
Supplies reduced to  60.4279% Note: One successful source step
Supplies reduced to  60.4312% Supplies reduced to  60.4279% Note: One successful source step
Supplies reduced to  60.4284% Note: One successful source step
Supplies reduced to  60.4291% Note: One successful source step
Supplies reduced to  60.4302% Supplies reduced to  60.4291% Note: One successful source step
Supplies reduced to  60.4293% Note: One successful source step
Supplies reduced to  60.4295% Note: One successful source step
Supplies reduced to  60.4299% Supplies reduced to  60.4295% Note: One successful source step
Supplies reduced to  60.4296% Warning: source stepping failed
doAnalyses: Too many iterations without convergence

dc simulation(s) aborted
Error(parse.c--checkvalid): vldo_sup_2_8: zero length vector.
Error: RHS "abs((vldo_sup_2_8-vldo_sup_2)/0.8)" invalid
Error(parse.c--checkvalid): line_reg: zero length vector.
Error(parse.c--checkvalid): vin: zero length vector.
Error: RHS "vin-1.764" invalid
Error(parse.c--checkvalid): dropout: zero length vector.
Error: no such vector dropout
Note: No ".plot", ".print", or ".fourier" lines; no simulations run
pm                  =  6.466177e+01
Doing analysis at TEMP = 85.000000 and TNOM = 27.000000


No. of Data Rows : 91
psrr100             =  -4.683136e+01
psrr100k            =  -2.510332e+01
Doing analysis at TEMP = 85.000000 and TNOM = 27.000000


No. of Data Rows : 86
temp_coeff = 3.686778e+01
Doing analysis at TEMP = 85.000000 and TNOM = 27.000000


Error: measure  vldo_sup_2  (AT) : out of interval
 meas dc vldo_sup_2 find ldo_out at=2 failed!


Error: measure  vldo_sup_2_8  (AT) : out of interval
 meas dc vldo_sup_2_8 find ldo_out at=2.8 failed!


Error: measure  vin  (WHEN) : out of interval
 meas dc vin when v(ldo_out)=1.764 failed!

