 Reference value :  0.00000e+00
No compatibility mode selected!


Circuit: * ldo netlist 

Doing analysis at TEMP = 27.000000 and TNOM = 27.000000


No. of Data Rows : 1
bg_out = 1.192543e+00
inn = 1.222414e+00
inp = 1.222373e+00
l1#branch = -1.38778e-17
ldo_out = 1.793215e+00
m.xm1.msky130_fd_pr__nfet_g5v0d10v5#body = 1.411757e-11
m.xm1.msky130_fd_pr__nfet_g5v0d10v5#dbody = 2.681495e-11
m.xm1.msky130_fd_pr__nfet_g5v0d10v5#sbody = 1.553776e-11
m.xm2.msky130_fd_pr__pfet_g5v0d10v5#body = 2.100000e+00
m.xm2.msky130_fd_pr__pfet_g5v0d10v5#dbody = 2.100000e+00
m.xm2.msky130_fd_pr__pfet_g5v0d10v5#sbody = 2.100000e+00
m.xm3.msky130_fd_pr__pfet_g5v0d10v5#body = 2.100000e+00
m.xm3.msky130_fd_pr__pfet_g5v0d10v5#dbody = 2.100000e+00
m.xm3.msky130_fd_pr__pfet_g5v0d10v5#sbody = 2.100000e+00
m.xm4.msky130_fd_pr__pfet_g5v0d10v5#body = 2.100000e+00
m.xm4.msky130_fd_pr__pfet_g5v0d10v5#dbody = 2.100000e+00
m.xm4.msky130_fd_pr__pfet_g5v0d10v5#sbody = 2.100000e+00
m.xm5.msky130_fd_pr__pfet_g5v0d10v5#body = 2.100000e+00
m.xm5.msky130_fd_pr__pfet_g5v0d10v5#dbody = 2.100000e+00
m.xm5.msky130_fd_pr__pfet_g5v0d10v5#sbody = 2.100000e+00
m.xm6.msky130_fd_pr__nfet_g5v0d10v5#body = 1.107274e-11
m.xm6.msky130_fd_pr__nfet_g5v0d10v5#dbody = 2.768185e-11
m.xm6.msky130_fd_pr__nfet_g5v0d10v5#sbody = 5.536376e-12
m.xm7.msky130_fd_pr__pfet_g5v0d10v5#body = 2.100000e+00
m.xm7.msky130_fd_pr__pfet_g5v0d10v5#dbody = 2.100000e+00
m.xm7.msky130_fd_pr__pfet_g5v0d10v5#sbody = 2.100000e+00
m.xm8.msky130_fd_pr__pfet_g5v0d10v5#body = 2.100000e+00
m.xm8.msky130_fd_pr__pfet_g5v0d10v5#dbody = 2.100000e+00
m.xm8.msky130_fd_pr__pfet_g5v0d10v5#sbody = 2.100000e+00
m.xm9.msky130_fd_pr__nfet_g5v0d10v5#body = 1.479442e-11
m.xm9.msky130_fd_pr__nfet_g5v0d10v5#dbody = 2.936665e-11
m.xm9.msky130_fd_pr__nfet_g5v0d10v5#sbody = 1.501662e-11
m.xm10.msky130_fd_pr__nfet_g5v0d10v5#body = 1.467212e-11
m.xm10.msky130_fd_pr__nfet_g5v0d10v5#dbody = 2.906088e-11
m.xm10.msky130_fd_pr__nfet_g5v0d10v5#sbody = 1.495546e-11
m.xm11.msky130_fd_pr__pfet_g5v0d10v5#body = 2.100000e+00
m.xm11.msky130_fd_pr__pfet_g5v0d10v5#dbody = 2.100000e+00
m.xm11.msky130_fd_pr__pfet_g5v0d10v5#sbody = 2.100000e+00
m.xm12.msky130_fd_pr__pfet_g5v0d10v5#body = 2.100000e+00
m.xm12.msky130_fd_pr__pfet_g5v0d10v5#dbody = 2.100000e+00
m.xm12.msky130_fd_pr__pfet_g5v0d10v5#sbody = 2.100000e+00
m.xm13.msky130_fd_pr__nfet_g5v0d10v5#body = 3.808346e-12
m.xm13.msky130_fd_pr__nfet_g5v0d10v5#dbody = 9.520853e-12
m.xm13.msky130_fd_pr__nfet_g5v0d10v5#sbody = 1.904183e-12
m.xm14.msky130_fd_pr__pfet_g5v0d10v5#body = 2.100000e+00
m.xm14.msky130_fd_pr__pfet_g5v0d10v5#dbody = 2.100000e+00
m.xm14.msky130_fd_pr__pfet_g5v0d10v5#sbody = 2.100000e+00
m.xm15.msky130_fd_pr__nfet_g5v0d10v5#body = 2.203992e-18
m.xm15.msky130_fd_pr__nfet_g5v0d10v5#dbody = 5.509770e-18
m.xm15.msky130_fd_pr__nfet_g5v0d10v5#sbody = 1.102205e-18
m.xm16.msky130_fd_pr__nfet_g5v0d10v5#body = 4.153881e-11
m.xm16.msky130_fd_pr__nfet_g5v0d10v5#dbody = 7.327803e-11
m.xm16.msky130_fd_pr__nfet_g5v0d10v5#sbody = 5.133838e-11
m.xm17.msky130_fd_pr__pfet_g5v0d10v5#body = 2.100000e+00
m.xm17.msky130_fd_pr__pfet_g5v0d10v5#dbody = 2.100000e+00
m.xm17.msky130_fd_pr__pfet_g5v0d10v5#sbody = 2.100000e+00
m.xm18.msky130_fd_pr__nfet_g5v0d10v5#body = 1.112171e-11
m.xm18.msky130_fd_pr__nfet_g5v0d10v5#dbody = 2.780426e-11
m.xm18.msky130_fd_pr__nfet_g5v0d10v5#sbody = 5.560866e-12
m.xm19.msky130_fd_pr__nfet_g5v0d10v5#body = 1.416000e-11
m.xm19.msky130_fd_pr__nfet_g5v0d10v5#dbody = 2.692103e-11
m.xm19.msky130_fd_pr__nfet_g5v0d10v5#sbody = 1.555898e-11
m.xm20.msky130_fd_pr__nfet_g5v0d10v5#body = 1.099011e-11
m.xm20.msky130_fd_pr__nfet_g5v0d10v5#dbody = 2.747526e-11
m.xm20.msky130_fd_pr__nfet_g5v0d10v5#sbody = 5.495066e-12
m.xm22.msky130_fd_pr__nfet_g5v0d10v5#body = 4.242201e-12
m.xm22.msky130_fd_pr__nfet_g5v0d10v5#dbody = 1.060550e-11
m.xm22.msky130_fd_pr__nfet_g5v0d10v5#sbody = 2.121105e-12
m.xm24.msky130_fd_pr__pfet_g5v0d10v5#body = 2.100000e+00
m.xm24.msky130_fd_pr__pfet_g5v0d10v5#dbody = 2.100000e+00
m.xm24.msky130_fd_pr__pfet_g5v0d10v5#sbody = 2.100000e+00
m.xm26.msky130_fd_pr__pfet_g5v0d10v5#body = 2.100000e+00
m.xm26.msky130_fd_pr__pfet_g5v0d10v5#dbody = 2.100000e+00
m.xm26.msky130_fd_pr__pfet_g5v0d10v5#sbody = 2.100000e+00
mir = 7.899015e-01
net1 = 7.251274e-01
net2 = 1.695932e-07
net3 = 7.846737e-01
net4 = 3.388137e-01
net5 = 7.932960e-01
net6 = 8.852570e-01
net7 = 7.846314e-01
net8 = 8.687564e-01
net9 = 8.785410e-01
net10 = 3.045395e-01
net11 = 8.896084e-01
net12 = 8.896084e-01
net13 = 0.000000e+00
out = 8.896084e-01
pos = 1.192666e+00
q.xq2.qsky130_fd_pr__pnp_05v5_w0p68l0p68#collcx = 2.093199e-03
q.xq3.qsky130_fd_pr__pnp_05v5_w0p68l0p68#collcx = 2.635958e-04
q.xq4.qsky130_fd_pr__pnp_05v5_w0p68l0p68#collcx = 2.635958e-04
q.xq8.qsky130_fd_pr__pnp_05v5_w0p68l0p68#collcx = 2.635958e-04
q.xq10.qsky130_fd_pr__pnp_05v5_w0p68l0p68#collcx = 2.635958e-04
q.xq12.qsky130_fd_pr__pnp_05v5_w0p68l0p68#collcx = 2.635958e-04
q.xq14.qsky130_fd_pr__pnp_05v5_w0p68l0p68#collcx = 2.635958e-04
q.xq16.qsky130_fd_pr__pnp_05v5_w0p68l0p68#collcx = 2.635958e-04
q.xq18.qsky130_fd_pr__pnp_05v5_w0p68l0p68#collcx = 2.635958e-04
vb = 8.790804e-01
vdd = 2.100000e+00
vs#branch = -1.00835e-02
vt#branch = 0.000000e+00
xc1.a = 0.000000e+00
xc1.b1 = 0.000000e+00
xc3.a = 8.896084e-01
xc3.b1 = 8.896084e-01
xr1.xsky130_fd_pr__res_xhigh_po_0p69.ra = 7.921779e-01
xr2.xsky130_fd_pr__res_xhigh_po_0p69.ra = 7.922201e-01
xr3.xsky130_fd_pr__res_xhigh_po_0p69.ra = 5.108723e-03
xr4.xsky130_fd_pr__res_xhigh_po_0p69.ra = 7.276640e-01
xr5.xsky130_fd_pr__res_xhigh_po_0p69.ra = 5.108430e-03
xr6.xsky130_fd_pr__res_xhigh_po_0p69.ra = 8.022426e-03
xr7.xsky130_fd_pr__res_xhigh_po_0p69.ra = 8.896084e-01
xr8.xsky130_fd_pr__res_xhigh_po_0p69.ra = 1.206014e+00
xr9.xsky130_fd_pr__res_xhigh_po_0p69.ra = 1.399791e-02
Doing analysis at TEMP = 27.000000 and TNOM = 27.000000


No. of Data Rows : 91
Note: Starting true gmin stepping
Trying gmin =   1.0000E-03 Note: One successful gmin step
Trying gmin =   1.0000E-04 Note: One successful gmin step
Trying gmin =   1.0000E-05 Note: One successful gmin step
Trying gmin =   1.0000E-06 Note: One successful gmin step
Trying gmin =   1.0000E-07 Warning: Further gmin increment
Trying gmin =   5.6234E-07 Note: One successful gmin step
Trying gmin =   2.3714E-07 Note: One successful gmin step
Trying gmin =   6.4938E-08 Note: One successful gmin step
Trying gmin =   9.3057E-09 Warning: Further gmin increment
Trying gmin =   3.9954E-08 Warning: Further gmin increment
Trying gmin =   5.7513E-08 Note: One successful gmin step
Trying gmin =   4.7936E-08 Note: One successful gmin step
Trying gmin =   3.6476E-08 Warning: Further gmin increment
Trying gmin =   4.4771E-08 Note: One successful gmin step
Trying gmin =   4.0412E-08 Note: One successful gmin step
Trying gmin =   3.4655E-08 Note: One successful gmin step
Trying gmin =   2.7520E-08 Note: One successful gmin step
Trying gmin =   1.9475E-08 Note: One successful gmin step
Trying gmin =   1.1594E-08 Note: One successful gmin step
Trying gmin =   5.3253E-09 Note: One successful gmin step
Trying gmin =   1.6578E-09 Note: One successful gmin step
Trying gmin =   2.8793E-10 Note: One successful gmin step
Trying gmin =   2.8793E-11 Note: One successful gmin step
Trying gmin =   2.8793E-12 Note: One successful gmin step
Trying gmin =   1.0000E-12 Note: One successful gmin step
Note: True gmin stepping completed
 Reference value :  1.52000e+00Note: Starting true gmin stepping
Trying gmin =   1.0000E-03 Note: One successful gmin step
Trying gmin =   1.0000E-04 Note: One successful gmin step
Trying gmin =   1.0000E-05 Note: One successful gmin step
Trying gmin =   1.0000E-06 Note: One successful gmin step
Trying gmin =   1.0000E-07 Warning: Further gmin increment
Trying gmin =   5.6234E-07 Note: One successful gmin step
Trying gmin =   2.3714E-07 Note: One successful gmin step
Trying gmin =   6.4938E-08 Note: One successful gmin step
Trying gmin =   9.3057E-09 Warning: Further gmin increment
Trying gmin =   3.9954E-08 Note: One successful gmin step
Trying gmin =   2.4582E-08 Note: One successful gmin step
Trying gmin =   1.1864E-08 Note: One successful gmin step
Trying gmin =   3.9775E-09 Note: One successful gmin step
Trying gmin =   7.7214E-10 Note: One successful gmin step
Trying gmin =   7.7214E-11 Note: One successful gmin step
Trying gmin =   7.7214E-12 Note: One successful gmin step
Trying gmin =   1.0000E-12 Note: One successful gmin step
Note: True gmin stepping completed
pm                  =  -7.872495e+01
Doing analysis at TEMP = 27.000000 and TNOM = 27.000000


No. of Data Rows : 91
psrr100             =  -6.340211e+01
psrr100k            =  -2.528842e+01
Doing analysis at TEMP = 27.000000 and TNOM = 27.000000


No. of Data Rows : 86
temp_coeff = 9.325749e+01
Doing analysis at TEMP = 27.000000 and TNOM = 27.000000


No. of Data Rows : 141
vldo_sup_2          =  1.793097e+00
vldo_sup_2_8        =  1.793288e+00
line_reg = 2.387500e-04
Note: No ".plot", ".print", or ".fourier" lines; no simulations run
vin                 =  1.786371e+00
dropout = 2.237100e-02
