 Reference value :  0.00000e+00
No compatibility mode selected!


Circuit: * ldo netlist 

Doing analysis at TEMP = 85.000000 and TNOM = 27.000000


No. of Data Rows : 1
bg_out = 1.197354e+00
inn = 1.143199e+00
inp = 1.143161e+00
l1#branch = 0.000000e+00
ldo_out = 1.800995e+00
m.xm1.msky130_fd_pr__nfet_g5v0d10v5#body = 3.166038e-11
m.xm1.msky130_fd_pr__nfet_g5v0d10v5#dbody = 6.274329e-11
m.xm1.msky130_fd_pr__nfet_g5v0d10v5#sbody = 3.223776e-11
m.xm2.msky130_fd_pr__pfet_g5v0d10v5#body = 2.500000e+00
m.xm2.msky130_fd_pr__pfet_g5v0d10v5#dbody = 2.500000e+00
m.xm2.msky130_fd_pr__pfet_g5v0d10v5#sbody = 2.500000e+00
m.xm3.msky130_fd_pr__pfet_g5v0d10v5#body = 2.500000e+00
m.xm3.msky130_fd_pr__pfet_g5v0d10v5#dbody = 2.500000e+00
m.xm3.msky130_fd_pr__pfet_g5v0d10v5#sbody = 2.500000e+00
m.xm4.msky130_fd_pr__pfet_g5v0d10v5#body = 2.500000e+00
m.xm4.msky130_fd_pr__pfet_g5v0d10v5#dbody = 2.500000e+00
m.xm4.msky130_fd_pr__pfet_g5v0d10v5#sbody = 2.500000e+00
m.xm5.msky130_fd_pr__pfet_g5v0d10v5#body = 2.500000e+00
m.xm5.msky130_fd_pr__pfet_g5v0d10v5#dbody = 2.500000e+00
m.xm5.msky130_fd_pr__pfet_g5v0d10v5#sbody = 2.500000e+00
m.xm6.msky130_fd_pr__nfet_g5v0d10v5#body = 2.043741e-11
m.xm6.msky130_fd_pr__nfet_g5v0d10v5#dbody = 5.109342e-11
m.xm6.msky130_fd_pr__nfet_g5v0d10v5#sbody = 1.021881e-11
m.xm7.msky130_fd_pr__pfet_g5v0d10v5#body = 2.500000e+00
m.xm7.msky130_fd_pr__pfet_g5v0d10v5#dbody = 2.500000e+00
m.xm7.msky130_fd_pr__pfet_g5v0d10v5#sbody = 2.500000e+00
m.xm8.msky130_fd_pr__pfet_g5v0d10v5#body = 2.500000e+00
m.xm8.msky130_fd_pr__pfet_g5v0d10v5#dbody = 2.500000e+00
m.xm8.msky130_fd_pr__pfet_g5v0d10v5#sbody = 2.500000e+00
m.xm9.msky130_fd_pr__nfet_g5v0d10v5#body = 2.981206e-11
m.xm9.msky130_fd_pr__nfet_g5v0d10v5#dbody = 6.092183e-11
m.xm9.msky130_fd_pr__nfet_g5v0d10v5#sbody = 2.851404e-11
m.xm10.msky130_fd_pr__nfet_g5v0d10v5#body = 2.964612e-11
m.xm10.msky130_fd_pr__nfet_g5v0d10v5#dbody = 6.050708e-11
m.xm10.msky130_fd_pr__nfet_g5v0d10v5#sbody = 2.843107e-11
m.xm11.msky130_fd_pr__pfet_g5v0d10v5#body = 2.500000e+00
m.xm11.msky130_fd_pr__pfet_g5v0d10v5#dbody = 2.500000e+00
m.xm11.msky130_fd_pr__pfet_g5v0d10v5#sbody = 2.500000e+00
m.xm12.msky130_fd_pr__pfet_g5v0d10v5#body = 2.500000e+00
m.xm12.msky130_fd_pr__pfet_g5v0d10v5#dbody = 2.500000e+00
m.xm12.msky130_fd_pr__pfet_g5v0d10v5#sbody = 2.500000e+00
m.xm13.msky130_fd_pr__nfet_g5v0d10v5#body = 5.157118e-12
m.xm13.msky130_fd_pr__nfet_g5v0d10v5#dbody = 1.289273e-11
m.xm13.msky130_fd_pr__nfet_g5v0d10v5#sbody = 2.578622e-12
m.xm14.msky130_fd_pr__pfet_g5v0d10v5#body = 2.500000e+00
m.xm14.msky130_fd_pr__pfet_g5v0d10v5#dbody = 2.500000e+00
m.xm14.msky130_fd_pr__pfet_g5v0d10v5#sbody = 2.500000e+00
m.xm15.msky130_fd_pr__nfet_g5v0d10v5#body = 8.361559e-14
m.xm15.msky130_fd_pr__nfet_g5v0d10v5#dbody = 2.090356e-13
m.xm15.msky130_fd_pr__nfet_g5v0d10v5#sbody = 4.181117e-14
m.xm16.msky130_fd_pr__nfet_g5v0d10v5#body = 5.616855e-11
m.xm16.msky130_fd_pr__nfet_g5v0d10v5#dbody = 1.012128e-10
m.xm16.msky130_fd_pr__nfet_g5v0d10v5#sbody = 6.729281e-11
m.xm17.msky130_fd_pr__pfet_g5v0d10v5#body = 2.500000e+00
m.xm17.msky130_fd_pr__pfet_g5v0d10v5#dbody = 2.500000e+00
m.xm17.msky130_fd_pr__pfet_g5v0d10v5#sbody = 2.500000e+00
m.xm18.msky130_fd_pr__nfet_g5v0d10v5#body = 1.726162e-11
m.xm18.msky130_fd_pr__nfet_g5v0d10v5#dbody = 4.315397e-11
m.xm18.msky130_fd_pr__nfet_g5v0d10v5#sbody = 8.630884e-12
m.xm19.msky130_fd_pr__nfet_g5v0d10v5#body = 3.172216e-11
m.xm19.msky130_fd_pr__nfet_g5v0d10v5#dbody = 6.289773e-11
m.xm19.msky130_fd_pr__nfet_g5v0d10v5#sbody = 3.226865e-11
m.xm20.msky130_fd_pr__nfet_g5v0d10v5#body = 1.449199e-11
m.xm20.msky130_fd_pr__nfet_g5v0d10v5#dbody = 3.622989e-11
m.xm20.msky130_fd_pr__nfet_g5v0d10v5#sbody = 7.246067e-12
m.xm22.msky130_fd_pr__nfet_g5v0d10v5#body = 1.149627e-11
m.xm22.msky130_fd_pr__nfet_g5v0d10v5#dbody = 2.874056e-11
m.xm22.msky130_fd_pr__nfet_g5v0d10v5#sbody = 5.748235e-12
m.xm24.msky130_fd_pr__pfet_g5v0d10v5#body = 2.500000e+00
m.xm24.msky130_fd_pr__pfet_g5v0d10v5#dbody = 2.500000e+00
m.xm24.msky130_fd_pr__pfet_g5v0d10v5#sbody = 2.500000e+00
m.xm26.msky130_fd_pr__pfet_g5v0d10v5#body = 2.500000e+00
m.xm26.msky130_fd_pr__pfet_g5v0d10v5#dbody = 2.500000e+00
m.xm26.msky130_fd_pr__pfet_g5v0d10v5#sbody = 2.500000e+00
mir = 1.451382e+00
net1 = 6.283762e-01
net2 = 1.614094e-04
net3 = 7.016556e-01
net4 = 2.315618e-01
net5 = 1.456324e+00
net6 = 9.462027e-01
net7 = 7.016167e-01
net8 = 1.534040e+00
net9 = 1.547311e+00
net10 = 2.511533e-01
net11 = 1.219428e+00
net12 = 1.219428e+00
net13 = 0.000000e+00
out = 1.219428e+00
pos = 1.197493e+00
q.xq2.qsky130_fd_pr__pnp_05v5_w0p68l0p68#collcx = 2.839033e-03
q.xq3.qsky130_fd_pr__pnp_05v5_w0p68l0p68#collcx = 3.581611e-04
q.xq4.qsky130_fd_pr__pnp_05v5_w0p68l0p68#collcx = 3.581611e-04
q.xq8.qsky130_fd_pr__pnp_05v5_w0p68l0p68#collcx = 3.581611e-04
q.xq10.qsky130_fd_pr__pnp_05v5_w0p68l0p68#collcx = 3.581611e-04
q.xq12.qsky130_fd_pr__pnp_05v5_w0p68l0p68#collcx = 3.581611e-04
q.xq14.qsky130_fd_pr__pnp_05v5_w0p68l0p68#collcx = 3.581611e-04
q.xq16.qsky130_fd_pr__pnp_05v5_w0p68l0p68#collcx = 3.581611e-04
q.xq18.qsky130_fd_pr__pnp_05v5_w0p68l0p68#collcx = 3.581611e-04
vb = 9.978579e-01
vdd = 2.500000e+00
vs#branch = -1.00187e-01
vt#branch = 0.000000e+00
xc1.a = 0.000000e+00
xc1.b1 = 0.000000e+00
xc3.a = 1.219428e+00
xc3.b1 = 1.219428e+00
xr1.xsky130_fd_pr__res_xhigh_po_0p69.ra = 7.098469e-01
xr2.xsky130_fd_pr__res_xhigh_po_0p69.ra = 7.098857e-01
xr3.xsky130_fd_pr__res_xhigh_po_0p69.ra = 4.908338e-03
xr4.xsky130_fd_pr__res_xhigh_po_0p69.ra = 6.317441e-01
xr5.xsky130_fd_pr__res_xhigh_po_0p69.ra = 4.908050e-03
xr6.xsky130_fd_pr__res_xhigh_po_0p69.ra = 8.717294e-03
xr7.xsky130_fd_pr__res_xhigh_po_0p69.ra = 1.219428e+00
xr8.xsky130_fd_pr__res_xhigh_po_0p69.ra = 1.211989e+00
xr9.xsky130_fd_pr__res_xhigh_po_0p69.ra = 1.520424e-02
Doing analysis at TEMP = 85.000000 and TNOM = 27.000000


No. of Data Rows : 91
Note: Starting true gmin stepping
Trying gmin =   1.0000E-03 Note: One successful gmin step
Trying gmin =   1.0000E-04 Note: One successful gmin step
Trying gmin =   1.0000E-05 Note: One successful gmin step
Trying gmin =   1.0000E-06 Note: One successful gmin step
Trying gmin =   1.0000E-07 Warning: Further gmin increment
Trying gmin =   5.6234E-07 Note: One successful gmin step
Trying gmin =   2.3714E-07 Note: One successful gmin step
Trying gmin =   6.4938E-08 Warning: Further gmin increment
Trying gmin =   1.7154E-07 Note: One successful gmin step
Trying gmin =   1.0554E-07 Warning: Further gmin increment
Trying gmin =   1.5193E-07 Note: One successful gmin step
Trying gmin =   1.2663E-07 Warning: Further gmin increment
Trying gmin =   1.4517E-07 Warning: Further gmin increment
Trying gmin =   1.5021E-07 Note: One successful gmin step
Trying gmin =   1.4767E-07 Note: One successful gmin step
Trying gmin =   1.4393E-07 Warning: Further gmin increment
Trying gmin =   1.4672E-07 Note: One successful gmin step
Trying gmin =   1.4532E-07 Warning: Further gmin increment
Trying gmin =   1.4637E-07 Note: One successful gmin step
Trying gmin =   1.4585E-07 Note: One successful gmin step
Trying gmin =   1.4506E-07 Warning: Further gmin increment
Trying gmin =   1.4565E-07 Warning: Further gmin increment
Trying gmin =   1.4580E-07 Note: One successful gmin step
Trying gmin =   1.4572E-07 Note: One successful gmin step
Trying gmin =   1.4561E-07 Warning: Further gmin increment
Trying gmin =   1.4569E-07 Warning: Further gmin increment
Trying gmin =   1.4572E-07 Note: One successful gmin step
Trying gmin =   1.4571E-07 Note: One successful gmin step
Trying gmin =   1.4569E-07 Warning: Further gmin increment
Trying gmin =   1.4570E-07 Note: One successful gmin step
Trying gmin =   1.4570E-07 Warning: Last gmin step failed
Warning: True gmin stepping failed
Note: Starting dynamic gmin stepping
Trying gmin =   1.0000E-03 Note: One successful gmin step
Trying gmin =   1.0000E-04 Note: One successful gmin step
Trying gmin =   1.0000E-05 Note: One successful gmin step
Trying gmin =   1.0000E-06 Note: One successful gmin step
Trying gmin =   1.0000E-07 Note: One successful gmin step
Trying gmin =   1.0000E-08 Note: One successful gmin step
Trying gmin =   1.0000E-09 Note: One successful gmin step
Trying gmin =   1.0000E-10 Note: One successful gmin step
Trying gmin =   1.0000E-11 Note: One successful gmin step
Trying gmin =   1.0000E-12 Note: One successful gmin step
Trying gmin =   1.0000E-12 Note: One successful gmin step
Note: Dynamic gmin stepping completed
 Reference value :  2.80000e+00Note: Starting true gmin stepping
Trying gmin =   1.0000E-03 Note: One successful gmin step
Trying gmin =   1.0000E-04 Note: One successful gmin step
Trying gmin =   1.0000E-05 Note: One successful gmin step
Trying gmin =   1.0000E-06 Note: One successful gmin step
Trying gmin =   1.0000E-07 Note: One successful gmin step
Trying gmin =   1.0000E-08 Note: One successful gmin step
Trying gmin =   1.0000E-09 Note: One successful gmin step
Trying gmin =   1.0000E-10 Warning: Further gmin increment
Trying gmin =   5.6234E-10 Note: One successful gmin step
Trying gmin =   3.1623E-10 Note: One successful gmin step
Trying gmin =   1.3335E-10 Note: One successful gmin step
Trying gmin =   3.6517E-11 Note: One successful gmin step
Trying gmin =   5.2330E-12 Note: One successful gmin step
Trying gmin =   1.0000E-12 Note: One successful gmin step
Note: True gmin stepping completed
 Reference value :  3.80000e-01pm                  =  7.841227e+01
Doing analysis at TEMP = 85.000000 and TNOM = 27.000000


No. of Data Rows : 91
psrr100             =  -5.335964e+01
psrr100k            =  -2.327852e+01
Doing analysis at TEMP = 85.000000 and TNOM = 27.000000


No. of Data Rows : 86
temp_coeff = 1.038545e+02
Doing analysis at TEMP = 85.000000 and TNOM = 27.000000


No. of Data Rows : 141
vldo_sup_2          =  1.799115e+00
vldo_sup_2_8        =  1.801524e+00
line_reg = 3.011250e-03
Note: No ".plot", ".print", or ".fourier" lines; no simulations run
vin                 =  1.916109e+00
dropout = 1.521090e-01
