Note: Starting true gmin stepping
Trying gmin =   1.0000E-03 Note: One successful gmin step
Trying gmin =   1.0000E-04 Note: One successful gmin step
Trying gmin =   1.0000E-05 Note: One successful gmin step
Trying gmin =   1.0000E-06 Note: One successful gmin step
Trying gmin =   1.0000E-07 Note: One successful gmin step
Trying gmin =   1.0000E-08 Warning: Further gmin increment
Trying gmin =   5.6234E-08 Note: One successful gmin step
Trying gmin =   4.2170E-08 Note: One successful gmin step
Trying gmin =   2.7384E-08 Warning: Further gmin increment
Trying gmin =   3.7855E-08 Note: One successful gmin step
Trying gmin =   3.2197E-08 Warning: Further gmin increment
Trying gmin =   3.6354E-08 Note: One successful gmin step
Trying gmin =   3.4212E-08 Note: One successful gmin step
Trying gmin =   3.2197E-08 Note: One successful gmin step
Trying gmin =   2.9394E-08 Note: One successful gmin step
Trying gmin =   2.5641E-08 Note: One successful gmin step
Trying gmin =   2.0890E-08 Note: One successful gmin step
Trying gmin =   1.5363E-08 Note: One successful gmin step
Trying gmin =   9.6881E-09 Note: One successful gmin step
Trying gmin =   4.8517E-09 Note: One successful gmin step
Trying gmin =   1.7195E-09 Note: One successful gmin step
Trying gmin =   3.6277E-10 Note: One successful gmin step
Trying gmin =   3.6277E-11 Note: One successful gmin step
Trying gmin =   3.6277E-12 Note: One successful gmin step
Trying gmin =   1.0000E-12 Note: One successful gmin step
Note: True gmin stepping completed
 Reference value :  0.00000e+00
No compatibility mode selected!


Circuit: * ldo netlist 

Doing analysis at TEMP = 0.000000 and TNOM = 27.000000


No. of Data Rows : 1
bg_out = 5.971491e-01
inn = 8.072471e-01
inp = 8.068933e-01
l1#branch = 0.000000e+00
ldo_out = 9.013449e-01
m.xm1.msky130_fd_pr__nfet_g5v0d10v5#body = 1.540780e-11
m.xm1.msky130_fd_pr__nfet_g5v0d10v5#dbody = 3.746270e-11
m.xm1.msky130_fd_pr__nfet_g5v0d10v5#sbody = 8.760704e-12
m.xm2.msky130_fd_pr__pfet_g5v0d10v5#body = 2.300000e+00
m.xm2.msky130_fd_pr__pfet_g5v0d10v5#dbody = 2.300000e+00
m.xm2.msky130_fd_pr__pfet_g5v0d10v5#sbody = 2.300000e+00
m.xm3.msky130_fd_pr__pfet_g5v0d10v5#body = 2.300000e+00
m.xm3.msky130_fd_pr__pfet_g5v0d10v5#dbody = 2.300000e+00
m.xm3.msky130_fd_pr__pfet_g5v0d10v5#sbody = 2.300000e+00
m.xm4.msky130_fd_pr__pfet_g5v0d10v5#body = 2.300000e+00
m.xm4.msky130_fd_pr__pfet_g5v0d10v5#dbody = 2.300000e+00
m.xm4.msky130_fd_pr__pfet_g5v0d10v5#sbody = 2.300000e+00
m.xm5.msky130_fd_pr__pfet_g5v0d10v5#body = 2.300000e+00
m.xm5.msky130_fd_pr__pfet_g5v0d10v5#dbody = 2.300000e+00
m.xm5.msky130_fd_pr__pfet_g5v0d10v5#sbody = 2.300000e+00
m.xm6.msky130_fd_pr__nfet_g5v0d10v5#body = 1.087445e-11
m.xm6.msky130_fd_pr__nfet_g5v0d10v5#dbody = 2.718613e-11
m.xm6.msky130_fd_pr__nfet_g5v0d10v5#sbody = 5.437230e-12
m.xm7.msky130_fd_pr__pfet_g5v0d10v5#body = 2.300000e+00
m.xm7.msky130_fd_pr__pfet_g5v0d10v5#dbody = 2.300000e+00
m.xm7.msky130_fd_pr__pfet_g5v0d10v5#sbody = 2.300000e+00
m.xm8.msky130_fd_pr__pfet_g5v0d10v5#body = 2.300000e+00
m.xm8.msky130_fd_pr__pfet_g5v0d10v5#dbody = 2.300000e+00
m.xm8.msky130_fd_pr__pfet_g5v0d10v5#sbody = 2.300000e+00
m.xm9.msky130_fd_pr__nfet_g5v0d10v5#body = 1.804265e-11
m.xm9.msky130_fd_pr__nfet_g5v0d10v5#dbody = 4.507180e-11
m.xm9.msky130_fd_pr__nfet_g5v0d10v5#sbody = 9.055880e-12
m.xm10.msky130_fd_pr__nfet_g5v0d10v5#body = 1.549584e-11
m.xm10.msky130_fd_pr__nfet_g5v0d10v5#dbody = 3.870504e-11
m.xm10.msky130_fd_pr__nfet_g5v0d10v5#sbody = 7.782474e-12
m.xm11.msky130_fd_pr__pfet_g5v0d10v5#body = 2.300000e+00
m.xm11.msky130_fd_pr__pfet_g5v0d10v5#dbody = 2.300000e+00
m.xm11.msky130_fd_pr__pfet_g5v0d10v5#sbody = 2.300000e+00
m.xm12.msky130_fd_pr__pfet_g5v0d10v5#body = 2.300000e+00
m.xm12.msky130_fd_pr__pfet_g5v0d10v5#dbody = 2.300000e+00
m.xm12.msky130_fd_pr__pfet_g5v0d10v5#sbody = 2.300000e+00
m.xm13.msky130_fd_pr__nfet_g5v0d10v5#body = 1.727597e-14
m.xm13.msky130_fd_pr__nfet_g5v0d10v5#dbody = 4.318983e-14
m.xm13.msky130_fd_pr__nfet_g5v0d10v5#sbody = 8.638095e-15
m.xm14.msky130_fd_pr__pfet_g5v0d10v5#body = 2.300000e+00
m.xm14.msky130_fd_pr__pfet_g5v0d10v5#dbody = 2.300000e+00
m.xm14.msky130_fd_pr__pfet_g5v0d10v5#sbody = 2.300000e+00
m.xm15.msky130_fd_pr__nfet_g5v0d10v5#body = 1.554232e-11
m.xm15.msky130_fd_pr__nfet_g5v0d10v5#dbody = 3.885576e-11
m.xm15.msky130_fd_pr__nfet_g5v0d10v5#sbody = 7.771160e-12
m.xm16.msky130_fd_pr__nfet_g5v0d10v5#body = 3.884071e-11
m.xm16.msky130_fd_pr__nfet_g5v0d10v5#dbody = 7.692047e-11
m.xm16.msky130_fd_pr__nfet_g5v0d10v5#sbody = 3.960165e-11
m.xm17.msky130_fd_pr__pfet_g5v0d10v5#body = 2.300000e+00
m.xm17.msky130_fd_pr__pfet_g5v0d10v5#dbody = 2.300000e+00
m.xm17.msky130_fd_pr__pfet_g5v0d10v5#sbody = 2.300000e+00
m.xm18.msky130_fd_pr__nfet_g5v0d10v5#body = 1.984281e-11
m.xm18.msky130_fd_pr__nfet_g5v0d10v5#dbody = 4.950559e-11
m.xm18.msky130_fd_pr__nfet_g5v0d10v5#sbody = 9.921412e-12
m.xm19.msky130_fd_pr__nfet_g5v0d10v5#body = 1.598088e-11
m.xm19.msky130_fd_pr__nfet_g5v0d10v5#dbody = 3.889537e-11
m.xm19.msky130_fd_pr__nfet_g5v0d10v5#sbody = 9.047243e-12
m.xm20.msky130_fd_pr__nfet_g5v0d10v5#body = 1.089224e-11
m.xm20.msky130_fd_pr__nfet_g5v0d10v5#dbody = 2.723060e-11
m.xm20.msky130_fd_pr__nfet_g5v0d10v5#sbody = 5.446127e-12
m.xm22.msky130_fd_pr__nfet_g5v0d10v5#body = 5.284306e-13
m.xm22.msky130_fd_pr__nfet_g5v0d10v5#dbody = 1.321075e-12
m.xm22.msky130_fd_pr__nfet_g5v0d10v5#sbody = 2.642165e-13
m.xm24.msky130_fd_pr__pfet_g5v0d10v5#body = 2.300000e+00
m.xm24.msky130_fd_pr__pfet_g5v0d10v5#dbody = 2.300000e+00
m.xm24.msky130_fd_pr__pfet_g5v0d10v5#sbody = 2.300000e+00
m.xm26.msky130_fd_pr__pfet_g5v0d10v5#body = 2.300000e+00
m.xm26.msky130Note: Starting true gmin stepping
Trying gmin =   1.0000E-03 Note: One successful gmin step
Trying gmin =   1.0000E-04 Note: One successful gmin step
Trying gmin =   1.0000E-05 Note: One successful gmin step
Trying gmin =   1.0000E-06 Note: One successful gmin step
Trying gmin =   1.0000E-07 Note: One successful gmin step
Trying gmin =   1.0000E-08 Warning: Further gmin increment
Trying gmin =   5.6234E-08 Note: One successful gmin step
Trying gmin =   4.2170E-08 Note: One successful gmin step
Trying gmin =   2.7384E-08 Warning: Further gmin increment
Trying gmin =   3.7855E-08 Note: One successful gmin step
Trying gmin =   3.2197E-08 Warning: Further gmin increment
Trying gmin =   3.6354E-08 Note: One successful gmin step
Trying gmin =   3.4212E-08 Note: One successful gmin step
Trying gmin =   3.2197E-08 Note: One successful gmin step
Trying gmin =   2.9394E-08 Note: One successful gmin step
Trying gmin =   2.5641E-08 Note: One successful gmin step
Trying gmin =   2.0890E-08 Note: One successful gmin step
Trying gmin =   1.5363E-08 Note: One successful gmin step
Trying gmin =   9.6881E-09 Note: One successful gmin step
Trying gmin =   4.8517E-09 Note: One successful gmin step
Trying gmin =   1.7195E-09 Note: One successful gmin step
Trying gmin =   3.6277E-10 Note: One successful gmin step
Trying gmin =   3.6277E-11 Note: One successful gmin step
Trying gmin =   3.6277E-12 Note: One successful gmin step
Trying gmin =   1.0000E-12 Note: One successful gmin step
Note: True gmin stepping completed
_fd_pr__pfet_g5v0d10v5#dbody = 2.300000e+00
m.xm26.msky130_fd_pr__pfet_g5v0d10v5#sbody = 2.300000e+00
mir = 1.190347e+00
net1 = 5.899777e-01
net2 = 1.243369e+00
net3 = 5.903551e-01
net4 = 4.226824e-02
net5 = 1.236192e+00
net6 = 8.699487e-01
net7 = 5.900233e-01
net8 = 1.238282e+00
net9 = 1.442016e+00
net10 = 1.381985e-03
net11 = 1.583366e+00
net12 = 1.583366e+00
net13 = 0.000000e+00
out = 1.583366e+00
pos = 5.996083e-01
q.xq2.qsky130_fd_pr__pnp_05v5_w0p68l0p68#collcx = 1.892717e-07
q.xq3.qsky130_fd_pr__pnp_05v5_w0p68l0p68#collcx = 1.863592e-07
q.xq4.qsky130_fd_pr__pnp_05v5_w0p68l0p68#collcx = 1.863592e-07
q.xq8.qsky130_fd_pr__pnp_05v5_w0p68l0p68#collcx = 1.863592e-07
q.xq10.qsky130_fd_pr__pnp_05v5_w0p68l0p68#collcx = 1.863592e-07
q.xq12.qsky130_fd_pr__pnp_05v5_w0p68l0p68#collcx = 1.863592e-07
q.xq14.qsky130_fd_pr__pnp_05v5_w0p68l0p68#collcx = 1.863592e-07
q.xq16.qsky130_fd_pr__pnp_05v5_w0p68l0p68#collcx = 1.863592e-07
q.xq18.qsky130_fd_pr__pnp_05v5_w0p68l0p68#collcx = 1.863592e-07
vb = 8.713777e-01
vdd = 2.300000e+00
vs#branch = -7.72129e-05
vt#branch = 0.000000e+00
xc1.a = 0.000000e+00
xc1.b1 = 0.000000e+00
xc3.a = 1.583366e+00
xc3.b1 = 1.583366e+00
xr1.xsky130_fd_pr__res_xhigh_po_0p69.ra = 5.935722e-01
xr2.xsky130_fd_pr__res_xhigh_po_0p69.ra = 5.939044e-01
xr3.xsky130_fd_pr__res_xhigh_po_0p69.ra = 3.632559e-03
xr4.xsky130_fd_pr__res_xhigh_po_0p69.ra = 5.899796e-01
xr5.xsky130_fd_pr__res_xhigh_po_0p69.ra = 3.630422e-03
xr6.xsky130_fd_pr__res_xhigh_po_0p69.ra = 3.676343e-03
xr7.xsky130_fd_pr__res_xhigh_po_0p69.ra = 1.583366e+00
xr8.xsky130_fd_pr__res_xhigh_po_0p69.ra = 6.059235e-01
xr9.xsky130_fd_pr__res_xhigh_po_0p69.ra = 6.444356e-03
Doing analysis at TEMP = 0.000000 and TNOM = 27.000000


No. of Data Rows : 91
Note: Starting true gmin stepping
Trying gmin =   1.0000E-03 Note: One successful gmin step
Trying gmin =   1.0000E-04 Note: One successful gmin step
Trying gmin =   1.0000E-05 Note: One successful gmin step
Trying gmin =   1.0000E-06 Note: One successful gmin step
Trying gmin =   1.0000E-07 Note: One successful gmin step
Trying gmin =   1.0000E-08 Warning: Further gmin increment
Trying gmin =   5.6234E-08 Note: One successful gmin step
Trying gmin =   4.2170E-08 Note: One successful gmin step
Trying gmin =   2.7384E-08 Warning: Further gmin increment
Trying gmin =   3.7855E-08 Note: One successful gmin step
Trying gmin =   3.2197E-08 Warning: Further gmin increment
Trying gmin =   3.6354E-08 Note: One successful gmin step
Trying gmin =   3.4212E-08 Note: One successful gmin step
Trying gmin =   3.2197E-08 Note: One successful gmin step
Trying gmin =   2.9394E-08 Note: One successful gmin step
Trying gmin =   2.5641E-08 Note: One successful gmin step
Trying gmin =   2.0890E-08 Note: One successful gmin step
Trying gmin =   1.5363E-08 Note: One successful gmin step
Trying gmin =   9.6881E-09 Note: One successful gmin step
Trying gmin =   4.8517E-09 Note: One successful gmin step
Trying gmin =   1.7195E-09 Note: One successful gmin step
Trying gmin =   3.6277E-10 Note: One successful gmin step
Trying gmin =   3.6277E-11 Note: One successful gmin step
Trying gmin =   3.6277E-12 Note: One successful gmin step
Trying gmin =   1.0000E-12 Note: One successful gmin step
Note: True gmin stepping completed
 Reference value :  1.00000e+00Note: Starting true gmin stepping
Trying gmin =   1.0000E-03 Note: One successful gmin step
Trying gmin =   1.0000E-04 Note: One successful gmin step
Trying gmin =   1.0000E-05 Note: One successful gmin step
Trying gmin =   1.0000E-06 Note: One successful gmin step
Trying gmin =   1.0000E-07 Note: One successful gmin step
Trying gmin =   1.0000E-08 Warning: Further gmin increment
Trying gmin =   5.6234E-08 Note: One successful gmin step
Trying gmin =   2.3714E-08 Warning: Further gmin increment
Trying gmin =   4.5316E-08 Note: One successful gmin step
Trying gmin =   3.2781E-08 Warning: Further gmin increment
Trying gmin =   4.1792E-08 Note: One successful gmin step
Trying gmin =   3.7013E-08 Note: One successful gmin step
Trying gmin =   3.0850E-08 Warning: Further gmin increment
Trying gmin =   3.5366E-08 Note: One successful gmin step
Trying gmin =   3.3031E-08 Warning: Further gmin increment
Trying gmin =   3.4767E-08 Note: One successful gmin step
Trying gmin =   3.3888E-08 Warning: Further gmin increment
Trying gmin =   3.4545E-08 Note: One successful gmin step
Trying gmin =   3.4215E-08 Warning: Further gmin increment
Trying gmin =   3.4462E-08 Warning: Further gmin increment
Trying gmin =   3.4524E-08 Note: One successful gmin step
Trying gmin =   3.4493E-08 Note: One successful gmin step
Trying gmin =   3.4447E-08 Warning: Further gmin increment
Trying gmin =   3.4482E-08 Note: One successful gmin step
Trying gmin =   3.4464E-08 Warning: Further gmin increment
Trying gmin =   3.4477E-08 Warning: Further gmin increment
Trying gmin =   3.4481E-08 Warning: Last gmin step failed
Warning: True gmin stepping failed
Note: Starting dynamic gmin stepping
Trying gmin =   1.0000E-03 Note: One successful gmin step
Trying gmin =   1.0000E-04 Note: One successful gmin step
Trying gmin =   1.0000E-05 Warning: Further gmin increment
Trying gmin =   5.6234E-05 Note: One successful gmin step
Trying gmin =   2.3714E-05 Note: One successful gmin step
Trying gmin =   6.4938E-06 Warning: Further gmin increment
Trying gmin =   1.7154E-05 Note: One successful gmin step
Trying gmin =   1.0554E-05 Warning: Further gmin increment
Trying gmin =   1.5193E-05 Note: One successful gmin step
Trying gmin =   1.2663E-05 Warning: Further gmin increment
Trying gmin =   1.4517E-05 Note: One successful gmin step
Trying gmin =   1.3558E-05 Note: One successful gmin step
Trying gmin =   1.2238E-05 Warning: Further gmin increment
Trying gmin =   1.3215E-05 Note: One successful gmin step
Trying gmin =   1.2717E-05 Note: One successful gmin step
Trying gmin =   1.2005E-05 Note: One successful gmin step
Trying gmin =   1.1011E-05 Note: One successful gmin step
Trying gmin =   9.6718E-06 Note: One successful gmin step
Trying gmin =   7.9623E-06 Note: One successful gmin step
Trying gmin =   5.9475E-06 Note: One successful gmin step
Trying gmin =   3.8395E-06 Warning: Further gmin increment
Trying gmin =   5.3311E-06 Note: One successful gmin step
Trying gmin =   4.5243E-06 Note: One successful gmin step
Trying gmin =   3.8395E-06 Note: One successful gmin step
Trying gmin =   3.0017E-06 Note: One successful gmin step
Trying gmin =   2.0749E-06 Note: One successful gmin step
Trying gmin =   1.1925E-06 Note: One successful gmin step
Trying gmin =   5.1958E-07 Note: One successful gmin step
Trying gmin =   1.4943E-07 Warning: Further gmin increment
Trying gmin =   3.8049E-07 Note: One successful gmin step
Trying gmin =   2.3844E-07 Note: One successful gmin step
Trying gmin =   1.1829E-07 Warning: Further gmin increment
Trying gmin =   2.0011E-07 Note: One successful gmin step
Trying gmin =   1.5386E-07 Warning: Further gmin increment
Trying gmin =   1.8739E-07 Note: One successful gmin step
Trying gmin =   1.6980E-07 Note: One successful gmin step
Trying gmin =   1.4646E-07 Warning: Further gmin increment
Trying gmin =   1.6363E-07 Note: One successful gmin step
Trying gmin =   1.5481E-07 Warning: Further gmin increment
Trying gmin =   1.6138E-07 Note: One successful gmin step
Trying gmin =   1.5806E-07 Warning: Further gmin increment
Trying gmin =   1.6054E-07 Note: One successful gmin step
Trying gmin =   1.5930E-07 Note: One successful gmin step
Trying gmin =   1.5744E-07 Warning: Further gmin increment
Trying gmin =   1.5883E-07 Note: One successful gmin step
Trying gmin =   1.5814E-07 Note: One successful gmin step
Trying gmin =   1.5710E-07 Warning: Further gmin increment
Trying gmin =   1.5788E-07 Warning: Further gmin increment
Trying gmin =   1.5807E-07 Warning: Further gmin increment
Trying gmin =   1.5812E-07 Warning: Further gmin increment
Trying gmin =   1.5813E-07 Note: One successful gmin step
Trying gmin =   1.5813E-07 Warning: Last gmin step failed
Warning: Dynamic gmin stepping failed
Note: Starting source stepping
Supplies reduced to   0.0000% Note: One successful source step
Supplies reduced to   0.1000% Note: One successful source step
Supplies reduced to   0.2000% Note: One successful source step
Supplies reduced to   0.3500% Note: One successful source step
Supplies reduced to   0.5750% Note: One successful source step
Supplies reduced to   0.9125% Note: One successful source step
Supplies reduced to   1.4188% Note: One successful source step
Supplies reduced to   2.1781% Note: One successful source step
Supplies reduced to   3.3172% Note: One successful source step
Supplies reduced to   5.0258% Note: One successful source step
Supplies reduced to   7.5887% Note: One successful source step
Supplies reduced to  11.4330% Note: One successful source step
Supplies reduced to  17.1995% Note: One successful source step
Supplies reduced to  25.8493% Supplies reduced to  17.1995% Note: One successful source step
Supplies reduced to  18.1995% Note: One successful source step
Supplies reduced to  19.6995% Note: One successful source step
Supplies reduced to  21.9495% Note: One successful source step
Supplies reduced to  25.3245% Supplies reduced to  21.9495% Note: One successful source step
Supplies reduced to  22.4558% Note: One successful source step
Supplies reduced to  23.2151% Note: One successful source step
Supplies reduced to  24.3542% Note: One successful source step
Supplies reduced to  26.0628% Note: One successful source step
Supplies reduced to  28.6257% Note: One successful source step
Supplies reduced to  32.4700% Note: One successful source step
Supplies reduced to  38.2365% Note: One successful source step
Supplies reduced to  46.8863% Supplies reduced to  38.2365% Note: One successful source step
Supplies reduced to  39.2365% Note: One successful source step
Supplies reduced to  40.7365% Note: One successful source step
Supplies reduced to  42.9865% Note: One successful source step
Supplies reduced to  46.3615% Note: One successful source step
Supplies reduced to  51.4240% Note: One successful source step
Supplies reduced to  59.0178% Note: One successful source step
Supplies reduced to  70.4084% Note: One successful source step
Supplies reduced to  87.4943% Supplies reduced to  70.4084% Note: One successful source step
Supplies reduced to  71.4084% Note: One successful source step
Supplies reduced to  72.9084% Note: One successful source step
Supplies reduced to  75.1584% Note: One successful source step
Supplies reduced to  78.5334% Note: One successful source step
Supplies reduced to  83.5959% Supplies reduced to  78.5334% Note: One successful source step
Supplies reduced to  79.2928% Note: One successful source step
Supplies reduced to  80.4318% Note: One successful source step
Supplies reduced to  82.1404% Note: One successful source step
Supplies reduced to  84.7033% Supplies reduced to  82.1404% Note: One successful source step
Supplies reduced to  82.5249% Note: One successful source step
Supplies reduced to  83.1015% Supplies reduced to  82.5249% Note: One successful source step
Supplies reduced to  82.6114% Note: One successful source step
Supplies reduced to  82.7411% Note: One successful source step
Supplies reduced to  82.9357% Note: One successful source step
Supplies reduced to  83.2277% Supplies reduced to  82.9357% Note: One successful source step
Supplies reduced to  82.9795% Supplies reduced to  82.9357% Note: One successful source step
Supplies reduced to  82.9423% Note: One successful source step
Supplies reduced to  82.9521% Note: One successful source step
Supplies reduced to  82.9669% Note: One successful source step
Supplies reduced to  82.9891% Supplies reduced to  82.9669% Note: One successful source step
Supplies reduced to  82.9703% Note: One successful source step
Supplies reduced to  82.9752% Supplies reduced to  82.9703% Note: One successful source step
Supplies reduced to  82.9710% Note: One successful source step
Supplies reduced to  82.9721% Note: One successful source step
Supplies reduced to  82.9738% Note: One successful source step
Supplies reduced to  82.9763% Error: -1.57361e+157, 2 out of range for ^
Supplies reduced to  82.9738% Note: One successful source step
Supplies reduced to  82.9742% Note: One successful source step
Supplies reduced to  82.9748% Supplies reduced to  82.9742% Note: One successful source step
Supplies reduced to  82.9743% Note: One successful source step
Supplies reduced to  82.9744% Note: One successful source step
Supplies reduced to  82.9746% Supplies reduced to  82.9744% Note: One successful source step
Supplies reduced to  82.9744% Note: One successful source step
Supplies reduced to  82.9745% Note: One successful source step
Supplies reduced to  82.9745% Warning: source stepping failed
doAnalyses: Too many iterations without convergence

dc simulation(s) aborted
Error(parse.c--checkvalid): vldo_sup_2_8: zero length vector.
Error: RHS "abs((vldo_sup_2_8-vldo_sup_2)/0.8)" invalid
Error(parse.c--checkvalid): line_reg: zero length vector.
Error(parse.c--checkvalid): vin: zero length vector.
Error: RHS "vin-1.764" invalid
Error(parse.c--checkvalid): dropout: zero length vector.
Error: no such vector dropout
Note: No ".plot", ".print", or ".fourier" lines; no simulations run
pm                  =  8.296849e+01
Doing analysis at TEMP = 0.000000 and TNOM = 27.000000


No. of Data Rows : 91
psrr100             =  -1.438054e+01
psrr100k            =  -7.886049e+00
Doing analysis at TEMP = 0.000000 and TNOM = 27.000000


No. of Data Rows : 86
temp_coeff = 7.562880e+01
Doing analysis at TEMP = 0.000000 and TNOM = 27.000000


Error: measure  vldo_sup_2  (AT) : out of interval
 meas dc vldo_sup_2 find ldo_out at=2 failed!


Error: measure  vldo_sup_2_8  (AT) : out of interval
 meas dc vldo_sup_2_8 find ldo_out at=2.8 failed!


Error: measure  vin  (WHEN) : out of interval
 meas dc vin when v(ldo_out)=1.764 failed!

