 Reference value :  0.00000e+00
No compatibility mode selected!


Circuit: * ldo netlist 

Doing analysis at TEMP = 85.000000 and TNOM = 27.000000


No. of Data Rows : 1
bg_out = 1.201121e+00
inn = 1.151071e+00
inp = 1.151029e+00
l1#branch = 0.000000e+00
ldo_out = 1.806805e+00
m.xm1.msky130_fd_pr__nfet_g5v0d10v5#body = 2.980181e-11
m.xm1.msky130_fd_pr__nfet_g5v0d10v5#dbody = 5.764743e-11
m.xm1.msky130_fd_pr__nfet_g5v0d10v5#sbody = 3.175799e-11
m.xm2.msky130_fd_pr__pfet_g5v0d10v5#body = 2.500000e+00
m.xm2.msky130_fd_pr__pfet_g5v0d10v5#dbody = 2.500000e+00
m.xm2.msky130_fd_pr__pfet_g5v0d10v5#sbody = 2.500000e+00
m.xm3.msky130_fd_pr__pfet_g5v0d10v5#body = 2.500000e+00
m.xm3.msky130_fd_pr__pfet_g5v0d10v5#dbody = 2.500000e+00
m.xm3.msky130_fd_pr__pfet_g5v0d10v5#sbody = 2.500000e+00
m.xm4.msky130_fd_pr__pfet_g5v0d10v5#body = 2.500000e+00
m.xm4.msky130_fd_pr__pfet_g5v0d10v5#dbody = 2.500000e+00
m.xm4.msky130_fd_pr__pfet_g5v0d10v5#sbody = 2.500000e+00
m.xm5.msky130_fd_pr__pfet_g5v0d10v5#body = 2.500000e+00
m.xm5.msky130_fd_pr__pfet_g5v0d10v5#dbody = 2.500000e+00
m.xm5.msky130_fd_pr__pfet_g5v0d10v5#sbody = 2.500000e+00
m.xm6.msky130_fd_pr__nfet_g5v0d10v5#body = 2.024910e-11
m.xm6.msky130_fd_pr__nfet_g5v0d10v5#dbody = 5.062265e-11
m.xm6.msky130_fd_pr__nfet_g5v0d10v5#sbody = 1.012466e-11
m.xm7.msky130_fd_pr__pfet_g5v0d10v5#body = 2.500000e+00
m.xm7.msky130_fd_pr__pfet_g5v0d10v5#dbody = 2.500000e+00
m.xm7.msky130_fd_pr__pfet_g5v0d10v5#sbody = 2.500000e+00
m.xm8.msky130_fd_pr__pfet_g5v0d10v5#body = 2.500000e+00
m.xm8.msky130_fd_pr__pfet_g5v0d10v5#dbody = 2.500000e+00
m.xm8.msky130_fd_pr__pfet_g5v0d10v5#sbody = 2.500000e+00
m.xm9.msky130_fd_pr__nfet_g5v0d10v5#body = 2.798494e-11
m.xm9.msky130_fd_pr__nfet_g5v0d10v5#dbody = 5.596533e-11
m.xm9.msky130_fd_pr__nfet_g5v0d10v5#sbody = 2.798950e-11
m.xm10.msky130_fd_pr__nfet_g5v0d10v5#body = 2.770464e-11
m.xm10.msky130_fd_pr__nfet_g5v0d10v5#dbody = 5.526458e-11
m.xm10.msky130_fd_pr__nfet_g5v0d10v5#sbody = 2.784935e-11
m.xm11.msky130_fd_pr__pfet_g5v0d10v5#body = 2.500000e+00
m.xm11.msky130_fd_pr__pfet_g5v0d10v5#dbody = 2.500000e+00
m.xm11.msky130_fd_pr__pfet_g5v0d10v5#sbody = 2.500000e+00
m.xm12.msky130_fd_pr__pfet_g5v0d10v5#body = 2.500000e+00
m.xm12.msky130_fd_pr__pfet_g5v0d10v5#dbody = 2.500000e+00
m.xm12.msky130_fd_pr__pfet_g5v0d10v5#sbody = 2.500000e+00
m.xm13.msky130_fd_pr__nfet_g5v0d10v5#body = 5.351293e-12
m.xm13.msky130_fd_pr__nfet_g5v0d10v5#dbody = 1.337817e-11
m.xm13.msky130_fd_pr__nfet_g5v0d10v5#sbody = 2.675711e-12
m.xm14.msky130_fd_pr__pfet_g5v0d10v5#body = 2.500000e+00
m.xm14.msky130_fd_pr__pfet_g5v0d10v5#dbody = 2.500000e+00
m.xm14.msky130_fd_pr__pfet_g5v0d10v5#sbody = 2.500000e+00
m.xm15.msky130_fd_pr__nfet_g5v0d10v5#body = 2.980416e-14
m.xm15.msky130_fd_pr__nfet_g5v0d10v5#dbody = 7.450905e-14
m.xm15.msky130_fd_pr__nfet_g5v0d10v5#sbody = 1.490344e-14
m.xm16.msky130_fd_pr__nfet_g5v0d10v5#body = 5.624471e-11
m.xm16.msky130_fd_pr__nfet_g5v0d10v5#dbody = 1.012287e-10
m.xm16.msky130_fd_pr__nfet_g5v0d10v5#sbody = 6.750545e-11
m.xm17.msky130_fd_pr__pfet_g5v0d10v5#body = 2.500000e+00
m.xm17.msky130_fd_pr__pfet_g5v0d10v5#dbody = 2.500000e+00
m.xm17.msky130_fd_pr__pfet_g5v0d10v5#sbody = 2.500000e+00
m.xm18.msky130_fd_pr__nfet_g5v0d10v5#body = 2.452248e-11
m.xm18.msky130_fd_pr__nfet_g5v0d10v5#dbody = 6.035569e-11
m.xm18.msky130_fd_pr__nfet_g5v0d10v5#sbody = 1.226132e-11
m.xm19.msky130_fd_pr__nfet_g5v0d10v5#body = 2.986681e-11
m.xm19.msky130_fd_pr__nfet_g5v0d10v5#dbody = 5.780994e-11
m.xm19.msky130_fd_pr__nfet_g5v0d10v5#sbody = 3.179049e-11
m.xm20.msky130_fd_pr__nfet_g5v0d10v5#body = 1.424564e-11
m.xm20.msky130_fd_pr__nfet_g5v0d10v5#dbody = 3.561402e-11
m.xm20.msky130_fd_pr__nfet_g5v0d10v5#sbody = 7.122891e-12
m.xm22.msky130_fd_pr__nfet_g5v0d10v5#body = 1.172236e-11
m.xm22.msky130_fd_pr__nfet_g5v0d10v5#dbody = 2.930580e-11
m.xm22.msky130_fd_pr__nfet_g5v0d10v5#sbody = 5.861285e-12
m.xm24.msky130_fd_pr__pfet_g5v0d10v5#body = 2.500000e+00
m.xm24.msky130_fd_pr__pfet_g5v0d10v5#dbody = 2.500000e+00
m.xm24.msky130_fd_pr__pfet_g5v0d10v5#sbody = 2.500000e+00
m.xm26.msky130_fd_pr__pfet_g5v0d10v5#body = 2.500000e+00
m.xm26.msky130_fd_pr__pfet_g5v0d10v5#dbody = 2.500000e+00
m.xm26.msky130_fd_pr__pfet_g5v0d10v5#sbody = 2.500000e+00
mir = 1.285608e+00
net1 = 6.354324e-01
net2 = 5.748259e-05
net3 = 7.082546e-01
net4 = 2.502586e-01
net5 = 1.290809e+00
net6 = 9.320272e-01
net7 = 7.082120e-01
net8 = 1.364059e+00
net9 = 1.386483e+00
net10 = 2.675435e-01
net11 = 1.763169e+00
net12 = 1.763169e+00
net13 = 0.000000e+00
out = 1.763169e+00
pos = 1.201355e+00
q.xq2.qsky130_fd_pr__pnp_05v5_w0p68l0p68#collcx = 2.689473e-03
q.xq3.qsky130_fd_pr__pnp_05v5_w0p68l0p68#collcx = 3.418678e-04
q.xq4.qsky130_fd_pr__pnp_05v5_w0p68l0p68#collcx = 3.418678e-04
q.xq8.qsky130_fd_pr__pnp_05v5_w0p68l0p68#collcx = 3.418678e-04
q.xq10.qsky130_fd_pr__pnp_05v5_w0p68l0p68#collcx = 3.418678e-04
q.xq12.qsky130_fd_pr__pnp_05v5_w0p68l0p68#collcx = 3.418678e-04
q.xq14.qsky130_fd_pr__pnp_05v5_w0p68l0p68#collcx = 3.418678e-04
q.xq16.qsky130_fd_pr__pnp_05v5_w0p68l0p68#collcx = 3.418678e-04
q.xq18.qsky130_fd_pr__pnp_05v5_w0p68l0p68#collcx = 3.418678e-04
vb = 9.790391e-01
vdd = 2.500000e+00
vs#branch = -1.82628e-04
vt#branch = 0.000000e+00
xc1.a = 0.000000e+00
xc1.b1 = 0.000000e+00
xc3.a = 1.763169e+00
xc3.b1 = 1.763169e+00
xr1.xsky130_fd_pr__res_xhigh_po_0p69.ra = 7.164666e-01
xr2.xsky130_fd_pr__res_xhigh_po_0p69.ra = 7.165092e-01
xr3.xsky130_fd_pr__res_xhigh_po_0p69.ra = 4.957198e-03
xr4.xsky130_fd_pr__res_xhigh_po_0p69.ra = 6.387791e-01
xr5.xsky130_fd_pr__res_xhigh_po_0p69.ra = 4.956883e-03
xr6.xsky130_fd_pr__res_xhigh_po_0p69.ra = 8.747168e-03
xr7.xsky130_fd_pr__res_xhigh_po_0p69.ra = 1.763169e+00
xr8.xsky130_fd_pr__res_xhigh_po_0p69.ra = 1.215900e+00
xr9.xsky130_fd_pr__res_xhigh_po_0p69.ra = 1.525763e-02
Doing analysis at TEMP = 85.000000 and TNOM = 27.000000


No. of Data Rows : 91
Note: Starting true gmin stepping
Trying gmin =   1.0000E-03 Note: One successful gmin step
Trying gmin =   1.0000E-04 Note: One successful gmin step
Trying gmin =   1.0000E-05 Note: One successful gmin step
Trying gmin =   1.0000E-06 Note: One successful gmin step
Trying gmin =   1.0000E-07 Note: One successful gmin step
Trying gmin =   1.0000E-08 Warning: Further gmin increment
Trying gmin =   5.6234E-08 Warning: Further gmin increment
Trying gmin =   8.6596E-08 Note: One successful gmin step
Trying gmin =   6.9783E-08 Warning: Further gmin increment
Trying gmin =   8.2047E-08 Warning: Further gmin increment
Trying gmin =   8.5436E-08 Note: One successful gmin step
Trying gmin =   8.3724E-08 Note: One successful gmin step
Trying gmin =   8.1221E-08 Warning: Further gmin increment
Trying gmin =   8.3091E-08 Warning: Further gmin increment
Trying gmin =   8.3566E-08 Note: One successful gmin step
Trying gmin =   8.3328E-08 Note: One successful gmin step
Trying gmin =   8.2973E-08 Warning: Further gmin increment
Trying gmin =   8.3239E-08 Note: One successful gmin step
Trying gmin =   8.3106E-08 Warning: Further gmin increment
Trying gmin =   8.3206E-08 Note: One successful gmin step
Trying gmin =   8.3156E-08 Note: One successful gmin step
Trying gmin =   8.3081E-08 Warning: Further gmin increment
Trying gmin =   8.3137E-08 Note: One successful gmin step
Trying gmin =   8.3109E-08 Warning: Further gmin increment
Trying gmin =   8.3130E-08 Note: One successful gmin step
Trying gmin =   8.3120E-08 Note: One successful gmin step
Trying gmin =   8.3104E-08 Warning: Further gmin increment
Trying gmin =   8.3116E-08 Warning: Last gmin step failed
Warning: True gmin stepping failed
Note: Starting dynamic gmin stepping
Trying gmin =   1.0000E-03 Note: One successful gmin step
Trying gmin =   1.0000E-04 Note: One successful gmin step
Trying gmin =   1.0000E-05 Warning: Further gmin increment
Trying gmin =   5.6234E-05 Note: One successful gmin step
Trying gmin =   2.3714E-05 Note: One successful gmin step
Trying gmin =   6.4938E-06 Warning: Further gmin increment
Trying gmin =   1.7154E-05 Note: One successful gmin step
Trying gmin =   1.0554E-05 Warning: Further gmin increment
Trying gmin =   1.5193E-05 Note: One successful gmin step
Trying gmin =   1.2663E-05 Warning: Further gmin increment
Trying gmin =   1.4517E-05 Note: One successful gmin step
Trying gmin =   1.3558E-05 Note: One successful gmin step
Trying gmin =   1.2238E-05 Warning: Further gmin increment
Trying gmin =   1.3215E-05 Note: One successful gmin step
Trying gmin =   1.2717E-05 Note: One successful gmin step
Trying gmin =   1.2005E-05 Note: One successful gmin step
Trying gmin =   1.1011E-05 Note: One successful gmin step
Trying gmin =   9.6718E-06 Note: One successful gmin step
Trying gmin =   7.9623E-06 Note: One successful gmin step
Trying gmin =   5.9475E-06 Note: One successful gmin step
Trying gmin =   3.8395E-06 Note: One successful gmin step
Trying gmin =   1.9915E-06 Note: One successful gmin step
Trying gmin =   7.4397E-07 Note: One successful gmin step
Trying gmin =   1.6987E-07 Warning: Further gmin increment
Trying gmin =   5.1428E-07 Note: One successful gmin step
Trying gmin =   2.9557E-07 Note: One successful gmin step
Trying gmin =   2.2407E-07 Note: One successful gmin step
Trying gmin =   1.4790E-07 Note: One successful gmin step
Trying gmin =   7.9317E-08 Note: One successful gmin step
Trying gmin =   3.1149E-08 Note: One successful gmin step
Trying gmin =   7.6662E-09 Note: One successful gmin step
Trying gmin =   9.3598E-10 Note: One successful gmin step
Trying gmin =   9.3598E-11 Note: One successful gmin step
Trying gmin =   9.3598E-12 Note: One successful gmin step
Trying gmin =   1.0000E-12 Note: One successful gmin step
Note: Dynamic gmin stepping completed
 Reference value :  2.80000e+00Note: Starting true gmin stepping
Trying gmin =   1.0000E-03 Note: One successful gmin step
Trying gmin =   1.0000E-04 Note: One successful gmin step
Trying gmin =   1.0000E-05 Note: One successful gmin step
Trying gmin =   1.0000E-06 Note: One successful gmin step
Trying gmin =   1.0000E-07 Note: One successful gmin step
Trying gmin =   1.0000E-08 Note: One successful gmin step
Trying gmin =   3.1623E-09 Warning: Further gmin increment
Trying gmin =   7.4989E-09 Note: One successful gmin step
Trying gmin =   4.8697E-09 Note: One successful gmin step
Trying gmin =   2.5483E-09 Note: One successful gmin step
Trying gmin =   9.6466E-10 Note: One successful gmin step
Trying gmin =   2.2468E-10 Note: One successful gmin step
Trying gmin =   2.5255E-11 Note: One successful gmin step
Trying gmin =   2.5255E-12 Note: One successful gmin step
Trying gmin =   1.0000E-12 Note: One successful gmin step
Note: True gmin stepping completed
Note: Starting true gmin stepping
Trying gmin =   1.0000E-03 Note: One successful gmin step
Trying gmin =   1.0000E-04 Note: One successful gmin step
Trying gmin =   1.0000E-05 Note: One successful gmin step
Trying gmin =   1.0000E-06 Note: One successful gmin step
Trying gmin =   1.0000E-07 Note: One successful gmin step
Trying gmin =   1.0000E-08 Warning: Further gmin increment
Trying gmin =   5.6234E-08 Note: One successful gmin step
Trying gmin =   2.3714E-08 Note: One successful gmin step
Trying gmin =   6.4938E-09 Note: One successful gmin step
Trying gmin =   9.3057E-10 Warning: Further gmin increment
Trying gmin =   3.9954E-09 Note: One successful gmin step
Trying gmin =   1.9282E-09 Note: One successful gmin step
Trying gmin =   6.4647E-10 Note: One successful gmin step
Trying gmin =   1.2550E-10 Note: One successful gmin step
Trying gmin =   1.2550E-11 Note: One successful gmin step
Trying gmin =   1.2550E-12 Note: One successful gmin step
Trying gmin =   1.0000E-12 Note: One successful gmin step
Note: True gmin stepping completed
 Reference value :  1.30000e+00pm                  =  5.764422e+01
Doing analysis at TEMP = 85.000000 and TNOM = 27.000000


No. of Data Rows : 91
psrr100             =  -5.346332e+01
psrr100k            =  -2.417191e+01
Doing analysis at TEMP = 85.000000 and TNOM = 27.000000


No. of Data Rows : 86
temp_coeff = 1.232666e+02
Doing analysis at TEMP = 85.000000 and TNOM = 27.000000


No. of Data Rows : 141
vldo_sup_2          =  1.804994e+00
vldo_sup_2_8        =  1.807326e+00
line_reg = 2.915000e-03
Note: No ".plot", ".print", or ".fourier" lines; no simulations run
vin                 =  1.764171e+00
dropout = 1.710000e-04
