 Reference value :  0.00000e+00
No compatibility mode selected!


Circuit: * ldo netlist 

Doing analysis at TEMP = 27.000000 and TNOM = 27.000000


No. of Data Rows : 1
bg_out = 1.098999e+00
inn = 1.144222e+00
inp = 1.144153e+00
l1#branch = -1.38778e-17
ldo_out = 1.806949e+00
m.xm1.msky130_fd_pr__nfet_g5v0d10v5#body = 1.374626e-11
m.xm1.msky130_fd_pr__nfet_g5v0d10v5#dbody = 2.869439e-11
m.xm1.msky130_fd_pr__nfet_g5v0d10v5#sbody = 1.254440e-11
m.xm2.msky130_fd_pr__pfet_g5v0d10v5#body = 2.100000e+00
m.xm2.msky130_fd_pr__pfet_g5v0d10v5#dbody = 2.100000e+00
m.xm2.msky130_fd_pr__pfet_g5v0d10v5#sbody = 2.100000e+00
m.xm3.msky130_fd_pr__pfet_g5v0d10v5#body = 2.100000e+00
m.xm3.msky130_fd_pr__pfet_g5v0d10v5#dbody = 2.100000e+00
m.xm3.msky130_fd_pr__pfet_g5v0d10v5#sbody = 2.100000e+00
m.xm4.msky130_fd_pr__pfet_g5v0d10v5#body = 2.100000e+00
m.xm4.msky130_fd_pr__pfet_g5v0d10v5#dbody = 2.100000e+00
m.xm4.msky130_fd_pr__pfet_g5v0d10v5#sbody = 2.100000e+00
m.xm5.msky130_fd_pr__pfet_g5v0d10v5#body = 2.100000e+00
m.xm5.msky130_fd_pr__pfet_g5v0d10v5#dbody = 2.100000e+00
m.xm5.msky130_fd_pr__pfet_g5v0d10v5#sbody = 2.100000e+00
m.xm6.msky130_fd_pr__nfet_g5v0d10v5#body = 1.184401e-11
m.xm6.msky130_fd_pr__nfet_g5v0d10v5#dbody = 2.961002e-11
m.xm6.msky130_fd_pr__nfet_g5v0d10v5#sbody = 5.922011e-12
m.xm7.msky130_fd_pr__pfet_g5v0d10v5#body = 2.100000e+00
m.xm7.msky130_fd_pr__pfet_g5v0d10v5#dbody = 2.100000e+00
m.xm7.msky130_fd_pr__pfet_g5v0d10v5#sbody = 2.100000e+00
m.xm8.msky130_fd_pr__pfet_g5v0d10v5#body = 2.100000e+00
m.xm8.msky130_fd_pr__pfet_g5v0d10v5#dbody = 2.100000e+00
m.xm8.msky130_fd_pr__pfet_g5v0d10v5#sbody = 2.100000e+00
m.xm9.msky130_fd_pr__nfet_g5v0d10v5#body = 1.441207e-11
m.xm9.msky130_fd_pr__nfet_g5v0d10v5#dbody = 3.148545e-11
m.xm9.msky130_fd_pr__nfet_g5v0d10v5#sbody = 1.175075e-11
m.xm10.msky130_fd_pr__nfet_g5v0d10v5#body = 1.417885e-11
m.xm10.msky130_fd_pr__nfet_g5v0d10v5#dbody = 3.090242e-11
m.xm10.msky130_fd_pr__nfet_g5v0d10v5#sbody = 1.163415e-11
m.xm11.msky130_fd_pr__pfet_g5v0d10v5#body = 2.100000e+00
m.xm11.msky130_fd_pr__pfet_g5v0d10v5#dbody = 2.100000e+00
m.xm11.msky130_fd_pr__pfet_g5v0d10v5#sbody = 2.100000e+00
m.xm12.msky130_fd_pr__pfet_g5v0d10v5#body = 2.100000e+00
m.xm12.msky130_fd_pr__pfet_g5v0d10v5#dbody = 2.100000e+00
m.xm12.msky130_fd_pr__pfet_g5v0d10v5#sbody = 2.100000e+00
m.xm13.msky130_fd_pr__nfet_g5v0d10v5#body = 2.271004e-12
m.xm13.msky130_fd_pr__nfet_g5v0d10v5#dbody = 5.677498e-12
m.xm13.msky130_fd_pr__nfet_g5v0d10v5#sbody = 1.135512e-12
m.xm14.msky130_fd_pr__pfet_g5v0d10v5#body = 2.100000e+00
m.xm14.msky130_fd_pr__pfet_g5v0d10v5#dbody = 2.100000e+00
m.xm14.msky130_fd_pr__pfet_g5v0d10v5#sbody = 2.100000e+00
m.xm15.msky130_fd_pr__nfet_g5v0d10v5#body = 7.447152e-17
m.xm15.msky130_fd_pr__nfet_g5v0d10v5#dbody = 1.861751e-16
m.xm15.msky130_fd_pr__nfet_g5v0d10v5#sbody = 3.723942e-17
m.xm16.msky130_fd_pr__nfet_g5v0d10v5#body = 4.056146e-11
m.xm16.msky130_fd_pr__nfet_g5v0d10v5#dbody = 7.278942e-11
m.xm16.msky130_fd_pr__nfet_g5v0d10v5#sbody = 4.889497e-11
m.xm17.msky130_fd_pr__pfet_g5v0d10v5#body = 2.100000e+00
m.xm17.msky130_fd_pr__pfet_g5v0d10v5#dbody = 2.100000e+00
m.xm17.msky130_fd_pr__pfet_g5v0d10v5#sbody = 2.100000e+00
m.xm18.msky130_fd_pr__nfet_g5v0d10v5#body = 1.251369e-11
m.xm18.msky130_fd_pr__nfet_g5v0d10v5#dbody = 3.128421e-11
m.xm18.msky130_fd_pr__nfet_g5v0d10v5#sbody = 6.256859e-12
m.xm19.msky130_fd_pr__nfet_g5v0d10v5#body = 1.383732e-11
m.xm19.msky130_fd_pr__nfet_g5v0d10v5#dbody = 2.892202e-11
m.xm19.msky130_fd_pr__nfet_g5v0d10v5#sbody = 1.258993e-11
m.xm20.msky130_fd_pr__nfet_g5v0d10v5#body = 1.211970e-11
m.xm20.msky130_fd_pr__nfet_g5v0d10v5#dbody = 3.029923e-11
m.xm20.msky130_fd_pr__nfet_g5v0d10v5#sbody = 6.059863e-12
m.xm22.msky130_fd_pr__nfet_g5v0d10v5#body = 2.838348e-12
m.xm22.msky130_fd_pr__nfet_g5v0d10v5#dbody = 7.095865e-12
m.xm22.msky130_fd_pr__nfet_g5v0d10v5#sbody = 1.419179e-12
m.xm24.msky130_fd_pr__pfet_g5v0d10v5#body = 2.100000e+00
m.xm24.msky130_fd_pr__pfet_g5v0d10v5#dbody = 2.100000e+00
m.xm24.msky130_fd_pr__pfet_g5v0d10v5#sbody = 2.100000e+00
m.xm26.msky130_fd_pr__pfet_g5v0d10v5#body = 2.100000e+00
m.xm26.msky130_fd_pr__pfet_g5v0d10v5#dbody = 2.100000e+00
m.xm26.msky130_fd_pr__pfet_g5v0d10v5#sbody = 2.100000e+00
mir = 8.725027e-01
net1 = 7.274357e-01
net2 = 5.729988e-06
net3 = 7.872941e-01
net4 = 2.265033e-01
net5 = 8.797868e-01
net6 = 9.469560e-01
net7 = 7.872237e-01
net8 = 9.522805e-01
net9 = 9.709376e-01
net10 = 1.815499e-01
net11 = 1.000965e+00
net12 = 1.000965e+00
net13 = 0.000000e+00
out = 1.000965e+00
pos = 1.099202e+00
q.xq2.qsky130_fd_pr__pnp_05v5_w0p68l0p68#collcx = 2.275571e-03
q.xq3.qsky130_fd_pr__pnp_05v5_w0p68l0p68#collcx = 2.868075e-04
q.xq4.qsky130_fd_pr__pnp_05v5_w0p68l0p68#collcx = 2.868075e-04
q.xq8.qsky130_fd_pr__pnp_05v5_w0p68l0p68#collcx = 2.868075e-04
q.xq10.qsky130_fd_pr__pnp_05v5_w0p68l0p68#collcx = 2.868075e-04
q.xq12.qsky130_fd_pr__pnp_05v5_w0p68l0p68#collcx = 2.868075e-04
q.xq14.qsky130_fd_pr__pnp_05v5_w0p68l0p68#collcx = 2.868075e-04
q.xq16.qsky130_fd_pr__pnp_05v5_w0p68l0p68#collcx = 2.868075e-04
q.xq18.qsky130_fd_pr__pnp_05v5_w0p68l0p68#collcx = 2.868075e-04
vb = 9.694452e-01
vdd = 2.100000e+00
vs#branch = -1.01706e-02
vt#branch = 0.000000e+00
xc1.a = 0.000000e+00
xc1.b1 = 0.000000e+00
xc3.a = 1.000965e+00
xc3.b1 = 1.000965e+00
xr1.xsky130_fd_pr__res_xhigh_po_0p69.ra = 7.902055e-01
xr2.xsky130_fd_pr__res_xhigh_po_0p69.ra = 7.902758e-01
xr3.xsky130_fd_pr__res_xhigh_po_0p69.ra = 2.064355e-03
xr4.xsky130_fd_pr__res_xhigh_po_0p69.ra = 7.284097e-01
xr5.xsky130_fd_pr__res_xhigh_po_0p69.ra = 2.064158e-03
xr6.xsky130_fd_pr__res_xhigh_po_0p69.ra = 3.165860e-03
xr7.xsky130_fd_pr__res_xhigh_po_0p69.ra = 1.000965e+00
xr8.xsky130_fd_pr__res_xhigh_po_0p69.ra = 1.104010e+00
xr9.xsky130_fd_pr__res_xhigh_po_0p69.ra = 4.963689e-03
Doing analysis at TEMP = 27.000000 and TNOM = 27.000000


No. of Data Rows : 91
Error: no such vector PM
Note: Starting true gmin stepping
Trying gmin =   1.0000E-03 Note: One successful gmin step
Trying gmin =   1.0000E-04 Note: One successful gmin step
Trying gmin =   1.0000E-05 Note: One successful gmin step
Trying gmin =   3.1623E-06 Note: One successful gmin step
Trying gmin =   5.6234E-07 Note: One successful gmin step
Trying gmin =   5.6234E-08 Warning: Further gmin increment
Trying gmin =   3.1623E-07 Warning: Further gmin increment
Trying gmin =   4.8697E-07 Note: One successful gmin step
Trying gmin =   3.9242E-07 Note: One successful gmin step
Trying gmin =   2.8387E-07 Warning: Further gmin increment
Trying gmin =   3.6190E-07 Note: One successful gmin step
Trying gmin =   3.2052E-07 Warning: Further gmin increment
Trying gmin =   3.5108E-07 Note: One successful gmin step
Trying gmin =   3.3546E-07 Note: One successful gmin step
Trying gmin =   3.1331E-07 Warning: Further gmin increment
Trying gmin =   3.2978E-07 Note: One successful gmin step
Trying gmin =   3.2144E-07 Warning: Further gmin increment
Trying gmin =   3.2767E-07 Note: One successful gmin step
Trying gmin =   3.2454E-07 Note: One successful gmin step
Trying gmin =   3.1990E-07 Warning: Further gmin increment
Trying gmin =   3.2337E-07 Warning: Further gmin increment
Trying gmin =   3.2425E-07 Note: One successful gmin step
Trying gmin =   3.2381E-07 Note: One successful gmin step
Trying gmin =   3.2315E-07 Warning: Further gmin increment
Trying gmin =   3.2365E-07 Note: One successful gmin step
Trying gmin =   3.2340E-07 Warning: Further gmin increment
Trying gmin =   3.2358E-07 Warning: Further gmin increment
Trying gmin =   3.2363E-07 Note: One successful gmin step
Trying gmin =   3.2361E-07 Warning: Further gmin increment
Trying gmin =   3.2362E-07 Note: One successful gmin step
Trying gmin =   3.2362E-07 Warning: Last gmin step failed
Warning: True gmin stepping failed
Note: Starting dynamic gmin stepping
Trying gmin =   1.0000E-03 Note: One successful gmin step
Trying gmin =   1.0000E-04 Note: One successful gmin step
Trying gmin =   1.0000E-05 Note: One successful gmin step
Trying gmin =   1.0000E-06 Note: One successful gmin step
Trying gmin =   1.0000E-07 Warning: Further gmin increment
Trying gmin =   5.6234E-07 Note: One successful gmin step
Trying gmin =   4.2170E-07 Note: One successful gmin step
Trying gmin =   2.7384E-07 Note: One successful gmin step
Trying gmin =   1.4330E-07 Note: One successful gmin step
Trying gmin =   5.4247E-08 Note: One successful gmin step
Trying gmin =   1.2635E-08 Note: One successful gmin step
Trying gmin =   1.4202E-09 Note: One successful gmin step
Trying gmin =   1.4202E-10 Note: One successful gmin step
Trying gmin =   1.4202E-11 Note: One successful gmin step
Trying gmin =   1.4202E-12 Note: One successful gmin step
Trying gmin =   1.0000E-12 Note: One successful gmin step
Note: Dynamic gmin stepping completed
 Reference value :  8.50000e+01Note: Starting true gmin stepping
Trying gmin =   1.0000E-03 Note: One successful gmin step
Trying gmin =   1.0000E-04 Note: One successful gmin step
Trying gmin =   1.0000E-05 Note: One successful gmin step
Trying gmin =   1.0000E-06 Note: One successful gmin step
Trying gmin =   1.0000E-07 Warning: Further gmin increment
Trying gmin =   5.6234E-07 Note: One successful gmin step
Trying gmin =   2.3714E-07 Note: One successful gmin step
Trying gmin =   6.4938E-08 Warning: Further gmin increment
Trying gmin =   1.7154E-07 Note: One successful gmin step
Trying gmin =   1.0554E-07 Note: One successful gmin step
Trying gmin =   5.0937E-08 Note: One successful gmin step
Trying gmin =   3.5386E-08 Note: One successful gmin step
Trying gmin =   2.0489E-08 Note: One successful gmin step
Trying gmin =   9.0275E-09 Note: One successful gmin step
Trying gmin =   2.6402E-09 Note: One successful gmin step
Trying gmin =   4.1757E-10 Note: One successful gmin step
Trying gmin =   4.1757E-11 Note: One successful gmin step
Trying gmin =   4.1757E-12 Note: One successful gmin step
Trying gmin =   1.0000E-12 Note: One successful gmin step
Note: True gmin stepping completed
 Reference value :  2.80000e+00Note: Starting true gmin stepping
Trying gmin =   1.0000E-03 Note: One successful gmin step
Trying gmin =   1.0000E-04 Note: One successful gmin step
Trying gmin =   1.0000E-05 Note: One successful gmin step
Trying gmin =   1.0000E-06 Note: One successful gmin step
Trying gmin =   1.0000E-07 Note: One successful gmin step
Trying gmin =   1.0000E-08 Note: One successful gmin step
Trying gmin =   1.0000E-09 Warning: Further gmin increment
Trying gmin =   5.6234E-09 Note: One successful gmin step
Trying gmin =   2.3714E-09 Warning: Further gmin increment
Trying gmin =   4.5316E-09 Note: One successful gmin step
Trying gmin =   3.2781E-09 Note: One successful gmin step
Trying gmin =   2.0169E-09 Warning: Further gmin increment
Trying gmin =   2.9033E-09 Note: One successful gmin step
Trying gmin =   2.4199E-09 Note: One successful gmin step
Trying gmin =   1.8414E-09 Note: One successful gmin step
Trying gmin =   1.2222E-09 Note: One successful gmin step
Trying gmin =   6.6098E-10 Warning: Further gmin increment
Trying gmin =   1.0481E-09 Note: One successful gmin step
Trying gmin =   8.3234E-10 Note: One successful gmin step
Trying gmin =   5.8903E-10 Note: One successful gmin step
Trying gmin =   3.5065E-10 Note: One successful gmin step
Trying gmin =   1.6106E-10 Note: One successful gmin step
Trying gmin =   5.0139E-11 Note: One successful gmin step
Trying gmin =   8.7085E-12 Note: One successful gmin step
Trying gmin =   1.0000E-12 Note: One successful gmin step
Note: True gmin stepping completed
 Reference value :  1.26000e+00Note: Starting true gmin stepping
Trying gmin =   1.0000E-03 Note: One successful gmin step
Trying gmin =   1.0000E-04 Note: One successful gmin step
Trying gmin =   1.0000E-05 Note: One successful gmin step
Trying gmin =   1.0000E-06 Note: One successful gmin step
Trying gmin =   1.0000E-07 Note: One successful gmin step
Trying gmin =   1.0000E-08 Note: One successful gmin step
Trying gmin =   3.1623E-09 Note: One successful gmin step
Trying gmin =   5.6234E-10 Warning: Further gmin increment
Trying gmin =   2.0535E-09 Note: One successful gmin step
Trying gmin =   1.0746E-09 Note: One successful gmin step
Trying gmin =   4.0679E-10 Warning: Further gmin increment
Trying gmin =   8.4291E-10 Note: One successful gmin step
Trying gmin =   5.8557E-10 Note: One successful gmin step
Trying gmin =   3.3906E-10 Note: One successful gmin step
Trying gmin =   1.4939E-10 Note: One successful gmin step
Trying gmin =   4.3690E-11 Note: One successful gmin step
Trying gmin =   6.9100E-12 Note: One successful gmin step
Trying gmin =   1.0000E-12 Note: One successful gmin step
Note: True gmin stepping completed
 Reference value :  1.80000e-01
Error: measure  pm  (AT) : out of interval
 meas ac pm find p when vdb(ldo_out)=0 failed!

Doing analysis at TEMP = 27.000000 and TNOM = 27.000000


No. of Data Rows : 91
psrr100             =  -8.235542e+01
psrr100k            =  -2.784623e+01
Doing analysis at TEMP = 27.000000 and TNOM = 27.000000


No. of Data Rows : 86
temp_coeff = 5.795625e+01
Doing analysis at TEMP = 27.000000 and TNOM = 27.000000


No. of Data Rows : 141
vldo_sup_2          =  2.188377e+00
vldo_sup_2_8        =  2.924630e+00
line_reg = 9.203163e-01
Note: No ".plot", ".print", or ".fourier" lines; no simulations run
vin                 =  1.473717e+00
dropout = -2.90283e-01
