 Reference value :  8.00000e+01 Reference value :  7.20000e-01
No compatibility mode selected!


Circuit: * ldo netlist 

Doing analysis at TEMP = 85.000000 and TNOM = 27.000000


No. of Data Rows : 81
temp_coeff = 3.123061e+01
Doing analysis at TEMP = 85.000000 and TNOM = 27.000000


No. of Data Rows : 151
vldo_sup_2          =  1.771801e+00
vldo_sup_3          =  1.802622e+00
line_reg = 3.082100e-02
Note: No ".plot", ".print", or ".fourier" lines; no simulations run
vin                 =  1.992806e+00
dropout = 2.288060e-01
Doing analysis at TEMP = 85.000000 and TNOM = 27.000000


No. of Data Rows : 91
psrr100             =  -5.069650e+01
psrr100k            =  -2.778303e+01
