 Reference value :  0.00000e+00
No compatibility mode selected!


Circuit: * ldo netlist 

Doing analysis at TEMP = 85.000000 and TNOM = 27.000000


No. of Data Rows : 1
bg_out = 1.096892e+00
inn = 1.058510e+00
inp = 1.058481e+00
l1#branch = 0.000000e+00
ldo_out = 1.802932e+00
m.xm1.msky130_fd_pr__nfet_g5v0d10v5#body = 2.952690e-11
m.xm1.msky130_fd_pr__nfet_g5v0d10v5#dbody = 5.665639e-11
m.xm1.msky130_fd_pr__nfet_g5v0d10v5#sbody = 3.192432e-11
m.xm2.msky130_fd_pr__pfet_g5v0d10v5#body = 2.500000e+00
m.xm2.msky130_fd_pr__pfet_g5v0d10v5#dbody = 2.500000e+00
m.xm2.msky130_fd_pr__pfet_g5v0d10v5#sbody = 2.500000e+00
m.xm3.msky130_fd_pr__pfet_g5v0d10v5#body = 2.500000e+00
m.xm3.msky130_fd_pr__pfet_g5v0d10v5#dbody = 2.500000e+00
m.xm3.msky130_fd_pr__pfet_g5v0d10v5#sbody = 2.500000e+00
m.xm4.msky130_fd_pr__pfet_g5v0d10v5#body = 2.500000e+00
m.xm4.msky130_fd_pr__pfet_g5v0d10v5#dbody = 2.500000e+00
m.xm4.msky130_fd_pr__pfet_g5v0d10v5#sbody = 2.500000e+00
m.xm5.msky130_fd_pr__pfet_g5v0d10v5#body = 2.500000e+00
m.xm5.msky130_fd_pr__pfet_g5v0d10v5#dbody = 2.500000e+00
m.xm5.msky130_fd_pr__pfet_g5v0d10v5#sbody = 2.500000e+00
m.xm6.msky130_fd_pr__nfet_g5v0d10v5#body = 1.907662e-11
m.xm6.msky130_fd_pr__nfet_g5v0d10v5#dbody = 4.769143e-11
m.xm6.msky130_fd_pr__nfet_g5v0d10v5#sbody = 9.538418e-12
m.xm7.msky130_fd_pr__pfet_g5v0d10v5#body = 2.500000e+00
m.xm7.msky130_fd_pr__pfet_g5v0d10v5#dbody = 2.500000e+00
m.xm7.msky130_fd_pr__pfet_g5v0d10v5#sbody = 2.500000e+00
m.xm8.msky130_fd_pr__pfet_g5v0d10v5#body = 2.500000e+00
m.xm8.msky130_fd_pr__pfet_g5v0d10v5#dbody = 2.500000e+00
m.xm8.msky130_fd_pr__pfet_g5v0d10v5#sbody = 2.500000e+00
m.xm9.msky130_fd_pr__nfet_g5v0d10v5#body = 2.765703e-11
m.xm9.msky130_fd_pr__nfet_g5v0d10v5#dbody = 5.491593e-11
m.xm9.msky130_fd_pr__nfet_g5v0d10v5#sbody = 2.805515e-11
m.xm10.msky130_fd_pr__nfet_g5v0d10v5#body = 2.737497e-11
m.xm10.msky130_fd_pr__nfet_g5v0d10v5#dbody = 5.421078e-11
m.xm10.msky130_fd_pr__nfet_g5v0d10v5#sbody = 2.791412e-11
m.xm11.msky130_fd_pr__pfet_g5v0d10v5#body = 2.500000e+00
m.xm11.msky130_fd_pr__pfet_g5v0d10v5#dbody = 2.500000e+00
m.xm11.msky130_fd_pr__pfet_g5v0d10v5#sbody = 2.500000e+00
m.xm12.msky130_fd_pr__pfet_g5v0d10v5#body = 2.500000e+00
m.xm12.msky130_fd_pr__pfet_g5v0d10v5#dbody = 2.500000e+00
m.xm12.msky130_fd_pr__pfet_g5v0d10v5#sbody = 2.500000e+00
m.xm13.msky130_fd_pr__nfet_g5v0d10v5#body = 5.465914e-12
m.xm13.msky130_fd_pr__nfet_g5v0d10v5#dbody = 1.366472e-11
m.xm13.msky130_fd_pr__nfet_g5v0d10v5#sbody = 2.733022e-12
m.xm14.msky130_fd_pr__pfet_g5v0d10v5#body = 2.500000e+00
m.xm14.msky130_fd_pr__pfet_g5v0d10v5#dbody = 2.500000e+00
m.xm14.msky130_fd_pr__pfet_g5v0d10v5#sbody = 2.500000e+00
m.xm15.msky130_fd_pr__nfet_g5v0d10v5#body = 2.617585e-14
m.xm15.msky130_fd_pr__nfet_g5v0d10v5#dbody = 6.543778e-14
m.xm15.msky130_fd_pr__nfet_g5v0d10v5#sbody = 1.308975e-14
m.xm16.msky130_fd_pr__nfet_g5v0d10v5#body = 5.496175e-11
m.xm16.msky130_fd_pr__nfet_g5v0d10v5#dbody = 1.004612e-10
m.xm16.msky130_fd_pr__nfet_g5v0d10v5#sbody = 6.442400e-11
m.xm17.msky130_fd_pr__pfet_g5v0d10v5#body = 2.500000e+00
m.xm17.msky130_fd_pr__pfet_g5v0d10v5#dbody = 2.500000e+00
m.xm17.msky130_fd_pr__pfet_g5v0d10v5#sbody = 2.500000e+00
m.xm18.msky130_fd_pr__nfet_g5v0d10v5#body = 2.394032e-11
m.xm18.msky130_fd_pr__nfet_g5v0d10v5#dbody = 5.914229e-11
m.xm18.msky130_fd_pr__nfet_g5v0d10v5#sbody = 1.197023e-11
m.xm19.msky130_fd_pr__nfet_g5v0d10v5#body = 2.957145e-11
m.xm19.msky130_fd_pr__nfet_g5v0d10v5#dbody = 5.676776e-11
m.xm19.msky130_fd_pr__nfet_g5v0d10v5#sbody = 3.194660e-11
m.xm20.msky130_fd_pr__nfet_g5v0d10v5#body = 1.235217e-11
m.xm20.msky130_fd_pr__nfet_g5v0d10v5#dbody = 3.088034e-11
m.xm20.msky130_fd_pr__nfet_g5v0d10v5#sbody = 6.176156e-12
m.xm22.msky130_fd_pr__nfet_g5v0d10v5#body = 1.187497e-11
m.xm22.msky130_fd_pr__nfet_g5v0d10v5#dbody = 2.968732e-11
m.xm22.msky130_fd_pr__nfet_g5v0d10v5#sbody = 5.937592e-12
m.xm24.msky130_fd_pr__pfet_g5v0d10v5#body = 2.500000e+00
m.xm24.msky130_fd_pr__pfet_g5v0d10v5#dbody = 2.500000e+00
m.xm24.msky130_fd_pr__pfet_g5v0d10v5#sbody = 2.500000e+00
m.xm26.msky130_fd_pr__pfet_g5v0d10v5#body = 2.500000e+00
m.xm26.msky130_fd_pr__pfet_g5v0d10v5#dbody = 2.500000e+00
m.xm26.msky130_fd_pr__pfet_g5v0d10v5#sbody = 2.500000e+00
mir = 1.256503e+00
net1 = 6.283811e-01
net2 = 5.066462e-05
net3 = 7.016622e-01
net4 = 2.673549e-01
net5 = 1.260066e+00
net6 = 8.432663e-01
net7 = 7.016328e-01
net8 = 1.333539e+00
net9 = 1.356104e+00
net10 = 2.817323e-01
net11 = 1.731315e+00
net12 = 1.731315e+00
net13 = 0.000000e+00
out = 1.731315e+00
pos = 1.097127e+00
q.xq2.qsky130_fd_pr__pnp_05v5_w0p68l0p68#collcx = 2.839510e-03
q.xq3.qsky130_fd_pr__pnp_05v5_w0p68l0p68#collcx = 3.582158e-04
q.xq4.qsky130_fd_pr__pnp_05v5_w0p68l0p68#collcx = 3.582158e-04
q.xq8.qsky130_fd_pr__pnp_05v5_w0p68l0p68#collcx = 3.582158e-04
q.xq10.qsky130_fd_pr__pnp_05v5_w0p68l0p68#collcx = 3.582158e-04
q.xq12.qsky130_fd_pr__pnp_05v5_w0p68l0p68#collcx = 3.582158e-04
q.xq14.qsky130_fd_pr__pnp_05v5_w0p68l0p68#collcx = 3.582158e-04
q.xq16.qsky130_fd_pr__pnp_05v5_w0p68l0p68#collcx = 3.582158e-04
q.xq18.qsky130_fd_pr__pnp_05v5_w0p68l0p68#collcx = 3.582158e-04
vb = 8.325997e-01
vdd = 2.500000e+00
vs#branch = -1.84405e-04
vt#branch = 0.000000e+00
xc1.a = 0.000000e+00
xc1.b1 = 0.000000e+00
xc3.a = 1.731315e+00
xc3.b1 = 1.731315e+00
xr1.xsky130_fd_pr__res_xhigh_po_0p69.ra = 7.100572e-01
xr2.xsky130_fd_pr__res_xhigh_po_0p69.ra = 7.100866e-01
xr3.xsky130_fd_pr__res_xhigh_po_0p69.ra = 5.152702e-03
xr4.xsky130_fd_pr__res_xhigh_po_0p69.ra = 6.317495e-01
xr5.xsky130_fd_pr__res_xhigh_po_0p69.ra = 5.152473e-03
xr6.xsky130_fd_pr__res_xhigh_po_0p69.ra = 8.910644e-03
xr7.xsky130_fd_pr__res_xhigh_po_0p69.ra = 1.731315e+00
xr8.xsky130_fd_pr__res_xhigh_po_0p69.ra = 1.110667e+00
xr9.xsky130_fd_pr__res_xhigh_po_0p69.ra = 1.397855e-02
Doing analysis at TEMP = 85.000000 and TNOM = 27.000000


No. of Data Rows : 91
Note: Starting true gmin stepping
Trying gmin =   1.0000E-03 Note: One successful gmin step
Trying gmin =   1.0000E-04 Note: One successful gmin step
Trying gmin =   1.0000E-05 Note: One successful gmin step
Trying gmin =   1.0000E-06 Note: One successful gmin step
Trying gmin =   1.0000E-07 Note: One successful gmin step
Trying gmin =   1.0000E-08 Warning: Further gmin increment
Trying gmin =   5.6234E-08 Warning: Further gmin increment
Trying gmin =   8.6596E-08 Note: One successful gmin step
Trying gmin =   7.4989E-08 Note: One successful gmin step
Trying gmin =   6.0430E-08 Note: One successful gmin step
Trying gmin =   4.3714E-08 Note: One successful gmin step
Trying gmin =   2.6896E-08 Note: One successful gmin step
Trying gmin =   1.2980E-08 Note: One successful gmin step
Trying gmin =   4.3518E-09 Note: One successful gmin step
Trying gmin =   8.4481E-10 Note: One successful gmin step
Trying gmin =   8.4481E-11 Note: One successful gmin step
Trying gmin =   8.4481E-12 Note: One successful gmin step
Trying gmin =   1.0000E-12 Note: One successful gmin step
Note: True gmin stepping completed
 Reference value :  1.40000e+00Note: Starting true gmin stepping
Trying gmin =   1.0000E-03 Note: One successful gmin step
Trying gmin =   1.0000E-04 Note: One successful gmin step
Trying gmin =   1.0000E-05 Note: One successful gmin step
Trying gmin =   1.0000E-06 Note: One successful gmin step
Trying gmin =   1.0000E-07 Note: One successful gmin step
Trying gmin =   1.0000E-08 Warning: Further gmin increment
Trying gmin =   5.6234E-08 Note: One successful gmin step
Trying gmin =   2.3714E-08 Warning: Further gmin increment
Trying gmin =   4.5316E-08 Note: One successful gmin step
Trying gmin =   3.2781E-08 Note: One successful gmin step
Trying gmin =   2.0169E-08 Note: One successful gmin step
Trying gmin =   9.7338E-09 Note: One successful gmin step
Trying gmin =   3.2634E-09 Note: One successful gmin step
Trying gmin =   6.3352E-10 Note: One successful gmin step
Trying gmin =   6.3352E-11 Note: One successful gmin step
Trying gmin =   6.3352E-12 Note: One successful gmin step
Trying gmin =   1.0000E-12 Note: One successful gmin step
Note: True gmin stepping completed
Note: Starting true gmin stepping
Trying gmin =   1.0000E-03 Note: One successful gmin step
Trying gmin =   1.0000E-04 Note: One successful gmin step
Trying gmin =   1.0000E-05 Note: One successful gmin step
Trying gmin =   1.0000E-06 Note: One successful gmin step
Trying gmin =   1.0000E-07 Note: One successful gmin step
Trying gmin =   1.0000E-08 Note: One successful gmin step
Trying gmin =   1.0000E-09 Warning: Further gmin increment
Trying gmin =   5.6234E-09 Note: One successful gmin step
Trying gmin =   2.3714E-09 Warning: Further gmin increment
Trying gmin =   4.5316E-09 Note: One successful gmin step
Trying gmin =   3.2781E-09 Note: One successful gmin step
Trying gmin =   2.0169E-09 Note: One successful gmin step
Trying gmin =   9.7338E-10 Note: One successful gmin step
Trying gmin =   3.2634E-10 Note: One successful gmin step
Trying gmin =   6.3352E-11 Note: One successful gmin step
Trying gmin =   6.3352E-12 Note: One successful gmin step
Trying gmin =   1.0000E-12 Note: One successful gmin step
Note: True gmin stepping completed
 Reference value :  1.00000e+00pm                  =  6.149145e+01
Doing analysis at TEMP = 85.000000 and TNOM = 27.000000


No. of Data Rows : 91
psrr100             =  -5.577058e+01
psrr100k            =  -2.694772e+01
Doing analysis at TEMP = 85.000000 and TNOM = 27.000000


No. of Data Rows : 86
temp_coeff = 2.838118e+01
Doing analysis at TEMP = 85.000000 and TNOM = 27.000000


No. of Data Rows : 141
vldo_sup_2          =  1.801552e+00
vldo_sup_2_8        =  1.803336e+00
line_reg = 2.230000e-03
Note: No ".plot", ".print", or ".fourier" lines; no simulations run
vin                 =  1.764174e+00
dropout = 1.740000e-04
