 Reference value :  0.00000e+00
No compatibility mode selected!


Circuit: * ldo netlist 

Doing analysis at TEMP = 85.000000 and TNOM = 27.000000


No. of Data Rows : 1
bg_out = 1.199981e+00
inn = 1.146459e+00
inp = 1.146412e+00
l1#branch = 0.000000e+00
ldo_out = 1.805027e+00
m.xm1.msky130_fd_pr__nfet_g5v0d10v5#body = 2.523829e-11
m.xm1.msky130_fd_pr__nfet_g5v0d10v5#dbody = 4.437431e-11
m.xm1.msky130_fd_pr__nfet_g5v0d10v5#sbody = 3.134055e-11
m.xm2.msky130_fd_pr__pfet_g5v0d10v5#body = 2.100000e+00
m.xm2.msky130_fd_pr__pfet_g5v0d10v5#dbody = 2.100000e+00
m.xm2.msky130_fd_pr__pfet_g5v0d10v5#sbody = 2.100000e+00
m.xm3.msky130_fd_pr__pfet_g5v0d10v5#body = 2.100000e+00
m.xm3.msky130_fd_pr__pfet_g5v0d10v5#dbody = 2.100000e+00
m.xm3.msky130_fd_pr__pfet_g5v0d10v5#sbody = 2.100000e+00
m.xm4.msky130_fd_pr__pfet_g5v0d10v5#body = 2.100000e+00
m.xm4.msky130_fd_pr__pfet_g5v0d10v5#dbody = 2.100000e+00
m.xm4.msky130_fd_pr__pfet_g5v0d10v5#sbody = 2.100000e+00
m.xm5.msky130_fd_pr__pfet_g5v0d10v5#body = 2.100000e+00
m.xm5.msky130_fd_pr__pfet_g5v0d10v5#dbody = 2.100000e+00
m.xm5.msky130_fd_pr__pfet_g5v0d10v5#sbody = 2.100000e+00
m.xm6.msky130_fd_pr__nfet_g5v0d10v5#body = 1.910288e-11
m.xm6.msky130_fd_pr__nfet_g5v0d10v5#dbody = 4.775708e-11
m.xm6.msky130_fd_pr__nfet_g5v0d10v5#sbody = 9.551552e-12
m.xm7.msky130_fd_pr__pfet_g5v0d10v5#body = 2.100000e+00
m.xm7.msky130_fd_pr__pfet_g5v0d10v5#dbody = 2.100000e+00
m.xm7.msky130_fd_pr__pfet_g5v0d10v5#sbody = 2.100000e+00
m.xm8.msky130_fd_pr__pfet_g5v0d10v5#body = 2.100000e+00
m.xm8.msky130_fd_pr__pfet_g5v0d10v5#dbody = 2.100000e+00
m.xm8.msky130_fd_pr__pfet_g5v0d10v5#sbody = 2.100000e+00
m.xm9.msky130_fd_pr__nfet_g5v0d10v5#body = 2.350282e-11
m.xm9.msky130_fd_pr__nfet_g5v0d10v5#dbody = 4.270361e-11
m.xm9.msky130_fd_pr__nfet_g5v0d10v5#sbody = 2.780484e-11
m.xm10.msky130_fd_pr__nfet_g5v0d10v5#body = 2.359905e-11
m.xm10.msky130_fd_pr__nfet_g5v0d10v5#dbody = 4.294418e-11
m.xm10.msky130_fd_pr__nfet_g5v0d10v5#sbody = 2.785296e-11
m.xm11.msky130_fd_pr__pfet_g5v0d10v5#body = 2.100000e+00
m.xm11.msky130_fd_pr__pfet_g5v0d10v5#dbody = 2.100000e+00
m.xm11.msky130_fd_pr__pfet_g5v0d10v5#sbody = 2.100000e+00
m.xm12.msky130_fd_pr__pfet_g5v0d10v5#body = 2.100000e+00
m.xm12.msky130_fd_pr__pfet_g5v0d10v5#dbody = 2.100000e+00
m.xm12.msky130_fd_pr__pfet_g5v0d10v5#sbody = 2.100000e+00
m.xm13.msky130_fd_pr__nfet_g5v0d10v5#body = 6.379010e-12
m.xm13.msky130_fd_pr__nfet_g5v0d10v5#dbody = 1.594745e-11
m.xm13.msky130_fd_pr__nfet_g5v0d10v5#sbody = 3.189573e-12
m.xm14.msky130_fd_pr__pfet_g5v0d10v5#body = 2.100000e+00
m.xm14.msky130_fd_pr__pfet_g5v0d10v5#dbody = 2.100000e+00
m.xm14.msky130_fd_pr__pfet_g5v0d10v5#sbody = 2.100000e+00
m.xm15.msky130_fd_pr__nfet_g5v0d10v5#body = 4.638303e-16
m.xm15.msky130_fd_pr__nfet_g5v0d10v5#dbody = 1.159536e-15
m.xm15.msky130_fd_pr__nfet_g5v0d10v5#sbody = 2.319546e-16
m.xm16.msky130_fd_pr__nfet_g5v0d10v5#body = 5.106111e-11
m.xm16.msky130_fd_pr__nfet_g5v0d10v5#dbody = 8.851092e-11
m.xm16.msky130_fd_pr__nfet_g5v0d10v5#sbody = 6.467239e-11
m.xm17.msky130_fd_pr__pfet_g5v0d10v5#body = 2.100000e+00
m.xm17.msky130_fd_pr__pfet_g5v0d10v5#dbody = 2.100000e+00
m.xm17.msky130_fd_pr__pfet_g5v0d10v5#sbody = 2.100000e+00
m.xm18.msky130_fd_pr__nfet_g5v0d10v5#body = 5.406696e-12
m.xm18.msky130_fd_pr__nfet_g5v0d10v5#dbody = 1.351667e-11
m.xm18.msky130_fd_pr__nfet_g5v0d10v5#sbody = 2.703414e-12
m.xm19.msky130_fd_pr__nfet_g5v0d10v5#body = 2.528583e-11
m.xm19.msky130_fd_pr__nfet_g5v0d10v5#dbody = 4.449317e-11
m.xm19.msky130_fd_pr__nfet_g5v0d10v5#sbody = 3.136432e-11
m.xm20.msky130_fd_pr__nfet_g5v0d10v5#body = 1.237785e-11
m.xm20.msky130_fd_pr__nfet_g5v0d10v5#dbody = 3.094455e-11
m.xm20.msky130_fd_pr__nfet_g5v0d10v5#sbody = 6.189000e-12
m.xm22.msky130_fd_pr__nfet_g5v0d10v5#body = 1.265614e-11
m.xm22.msky130_fd_pr__nfet_g5v0d10v5#dbody = 3.164024e-11
m.xm22.msky130_fd_pr__nfet_g5v0d10v5#sbody = 6.328179e-12
m.xm24.msky130_fd_pr__pfet_g5v0d10v5#body = 2.100000e+00
m.xm24.msky130_fd_pr__pfet_g5v0d10v5#dbody = 2.100000e+00
m.xm24.msky130_fd_pr__pfet_g5v0d10v5#sbody = 2.100000e+00
m.xm26.msky130_fd_pr__pfet_g5v0d10v5#body = 2.100000e+00
m.xm26.msky130_fd_pr__pfet_g5v0d10v5#dbody = 2.100000e+00
m.xm26.msky130_fd_pr__pfet_g5v0d10v5#sbody = 2.100000e+00
mir = 8.509918e-01
net1 = 6.298193e-01
net2 = 8.971107e-07
net3 = 7.033738e-01
net4 = 3.296620e-01
net5 = 8.547955e-01
net6 = 8.453673e-01
net7 = 7.033256e-01
net8 = 9.583935e-01
net9 = 9.506952e-01
net10 = 3.547510e-01
net11 = 2.769998e-01
net12 = 2.769998e-01
net13 = 0.000000e+00
out = 2.769998e-01
pos = 1.199871e+00
q.xq2.qsky130_fd_pr__pnp_05v5_w0p68l0p68#collcx = 2.964392e-03
q.xq3.qsky130_fd_pr__pnp_05v5_w0p68l0p68#collcx = 3.741444e-04
q.xq4.qsky130_fd_pr__pnp_05v5_w0p68l0p68#collcx = 3.741444e-04
q.xq8.qsky130_fd_pr__pnp_05v5_w0p68l0p68#collcx = 3.741444e-04
q.xq10.qsky130_fd_pr__pnp_05v5_w0p68l0p68#collcx = 3.741444e-04
q.xq12.qsky130_fd_pr__pnp_05v5_w0p68l0p68#collcx = 3.741444e-04
q.xq14.qsky130_fd_pr__pnp_05v5_w0p68l0p68#collcx = 3.741444e-04
q.xq16.qsky130_fd_pr__pnp_05v5_w0p68l0p68#collcx = 3.741444e-04
q.xq18.qsky130_fd_pr__pnp_05v5_w0p68l0p68#collcx = 3.741444e-04
vb = 8.346544e-01
vdd = 2.100000e+00
vs#branch = -1.00415e-01
vt#branch = 0.000000e+00
xc1.a = 0.000000e+00
xc1.b1 = 0.000000e+00
xc3.a = 2.769998e-01
xc3.b1 = 2.769998e-01
xr1.xsky130_fd_pr__res_xhigh_po_0p69.ra = 7.091412e-01
xr2.xsky130_fd_pr__res_xhigh_po_0p69.ra = 7.091893e-01
xr3.xsky130_fd_pr__res_xhigh_po_0p69.ra = 3.468039e-03
xr4.xsky130_fd_pr__res_xhigh_po_0p69.ra = 6.321992e-01
xr5.xsky130_fd_pr__res_xhigh_po_0p69.ra = 3.467788e-03
xr6.xsky130_fd_pr__res_xhigh_po_0p69.ra = 6.158589e-03
xr7.xsky130_fd_pr__res_xhigh_po_0p69.ra = 2.769998e-01
xr8.xsky130_fd_pr__res_xhigh_po_0p69.ra = 1.210106e+00
xr9.xsky130_fd_pr__res_xhigh_po_0p69.ra = 1.073513e-02
Doing analysis at TEMP = 85.000000 and TNOM = 27.000000


No. of Data Rows : 91
 Reference value :  1.30000e+00Note: Starting true gmin stepping
Trying gmin =   1.0000E-03 Note: One successful gmin step
Trying gmin =   1.0000E-04 Note: One successful gmin step
Trying gmin =   1.0000E-05 Note: One successful gmin step
Trying gmin =   1.0000E-06 Note: One successful gmin step
Trying gmin =   1.0000E-07 Note: One successful gmin step
Trying gmin =   1.0000E-08 Warning: Further gmin increment
Trying gmin =   5.6234E-08 Note: One successful gmin step
Trying gmin =   2.3714E-08 Note: One successful gmin step
Trying gmin =   6.4938E-09 Note: One successful gmin step
Trying gmin =   1.7783E-09 Note: One successful gmin step
Trying gmin =   2.5483E-10 Note: One successful gmin step
Trying gmin =   2.5483E-11 Note: One successful gmin step
Trying gmin =   2.5483E-12 Note: One successful gmin step
Trying gmin =   1.0000E-12 Note: One successful gmin step
Note: True gmin stepping completed
Note: Starting true gmin stepping
Trying gmin =   1.0000E-03 Note: One successful gmin step
Trying gmin =   1.0000E-04 Note: One successful gmin step
Trying gmin =   1.0000E-05 Note: One successful gmin step
Trying gmin =   1.0000E-06 Note: One successful gmin step
Trying gmin =   1.0000E-07 Note: One successful gmin step
Trying gmin =   1.0000E-08 Note: One successful gmin step
Trying gmin =   1.0000E-09 Note: One successful gmin step
Trying gmin =   1.0000E-10 Note: One successful gmin step
Trying gmin =   1.0000E-11 Note: One successful gmin step
Trying gmin =   1.0000E-12 Note: One successful gmin step
Trying gmin =   1.0000E-12 Note: One successful gmin step
Note: True gmin stepping completed
 Reference value :  8.40000e-01pm                  =  9.827019e+01
Doing analysis at TEMP = 85.000000 and TNOM = 27.000000


No. of Data Rows : 91
psrr100             =  -4.069966e+01
psrr100k            =  -1.560494e+01
Doing analysis at TEMP = 85.000000 and TNOM = 27.000000


No. of Data Rows : 86
temp_coeff = 1.239835e+02
Doing analysis at TEMP = 85.000000 and TNOM = 27.000000


No. of Data Rows : 141
vldo_sup_2          =  1.771801e+00
vldo_sup_2_8        =  1.807117e+00
line_reg = 4.414500e-02
Note: No ".plot", ".print", or ".fourier" lines; no simulations run
vin                 =  1.992805e+00
dropout = 2.288050e-01
