 Reference value :  0.00000e+00
No compatibility mode selected!


Circuit: * ldo netlist 

Doing analysis at TEMP = 85.000000 and TNOM = 27.000000


No. of Data Rows : 1
bg_out = 1.105220e+00
inn = 1.072103e+00
inp = 1.071969e+00
l1#branch = 0.000000e+00
ldo_out = 1.817434e+00
m.xm1.msky130_fd_pr__nfet_g5v0d10v5#body = 2.627968e-11
m.xm1.msky130_fd_pr__nfet_g5v0d10v5#dbody = 5.040400e-11
m.xm1.msky130_fd_pr__nfet_g5v0d10v5#sbody = 2.843503e-11
m.xm2.msky130_fd_pr__pfet_g5v0d10v5#body = 2.300000e+00
m.xm2.msky130_fd_pr__pfet_g5v0d10v5#dbody = 2.300000e+00
m.xm2.msky130_fd_pr__pfet_g5v0d10v5#sbody = 2.300000e+00
m.xm3.msky130_fd_pr__pfet_g5v0d10v5#body = 2.300000e+00
m.xm3.msky130_fd_pr__pfet_g5v0d10v5#dbody = 2.300000e+00
m.xm3.msky130_fd_pr__pfet_g5v0d10v5#sbody = 2.300000e+00
m.xm4.msky130_fd_pr__pfet_g5v0d10v5#body = 2.300000e+00
m.xm4.msky130_fd_pr__pfet_g5v0d10v5#dbody = 2.300000e+00
m.xm4.msky130_fd_pr__pfet_g5v0d10v5#sbody = 2.300000e+00
m.xm5.msky130_fd_pr__pfet_g5v0d10v5#body = 2.300000e+00
m.xm5.msky130_fd_pr__pfet_g5v0d10v5#dbody = 2.300000e+00
m.xm5.msky130_fd_pr__pfet_g5v0d10v5#sbody = 2.300000e+00
m.xm6.msky130_fd_pr__nfet_g5v0d10v5#body = 2.041086e-11
m.xm6.msky130_fd_pr__nfet_g5v0d10v5#dbody = 5.102702e-11
m.xm6.msky130_fd_pr__nfet_g5v0d10v5#sbody = 1.020555e-11
m.xm7.msky130_fd_pr__pfet_g5v0d10v5#body = 2.300000e+00
m.xm7.msky130_fd_pr__pfet_g5v0d10v5#dbody = 2.300000e+00
m.xm7.msky130_fd_pr__pfet_g5v0d10v5#sbody = 2.300000e+00
m.xm8.msky130_fd_pr__pfet_g5v0d10v5#body = 2.300000e+00
m.xm8.msky130_fd_pr__pfet_g5v0d10v5#dbody = 2.300000e+00
m.xm8.msky130_fd_pr__pfet_g5v0d10v5#sbody = 2.300000e+00
m.xm9.msky130_fd_pr__nfet_g5v0d10v5#body = 2.451388e-11
m.xm9.msky130_fd_pr__nfet_g5v0d10v5#dbody = 4.912505e-11
m.xm9.msky130_fd_pr__nfet_g5v0d10v5#sbody = 2.441660e-11
m.xm10.msky130_fd_pr__nfet_g5v0d10v5#body = 2.420397e-11
m.xm10.msky130_fd_pr__nfet_g5v0d10v5#dbody = 4.835027e-11
m.xm10.msky130_fd_pr__nfet_g5v0d10v5#sbody = 2.426164e-11
m.xm11.msky130_fd_pr__pfet_g5v0d10v5#body = 2.300000e+00
m.xm11.msky130_fd_pr__pfet_g5v0d10v5#dbody = 2.300000e+00
m.xm11.msky130_fd_pr__pfet_g5v0d10v5#sbody = 2.300000e+00
m.xm12.msky130_fd_pr__pfet_g5v0d10v5#body = 2.300000e+00
m.xm12.msky130_fd_pr__pfet_g5v0d10v5#dbody = 2.300000e+00
m.xm12.msky130_fd_pr__pfet_g5v0d10v5#sbody = 2.300000e+00
m.xm13.msky130_fd_pr__nfet_g5v0d10v5#body = 4.436769e-12
m.xm13.msky130_fd_pr__nfet_g5v0d10v5#dbody = 1.109186e-11
m.xm13.msky130_fd_pr__nfet_g5v0d10v5#sbody = 2.218451e-12
m.xm14.msky130_fd_pr__pfet_g5v0d10v5#body = 2.300000e+00
m.xm14.msky130_fd_pr__pfet_g5v0d10v5#dbody = 2.300000e+00
m.xm14.msky130_fd_pr__pfet_g5v0d10v5#sbody = 2.300000e+00
m.xm15.msky130_fd_pr__nfet_g5v0d10v5#body = 2.430429e-14
m.xm15.msky130_fd_pr__nfet_g5v0d10v5#dbody = 6.075992e-14
m.xm15.msky130_fd_pr__nfet_g5v0d10v5#sbody = 1.215296e-14
m.xm16.msky130_fd_pr__nfet_g5v0d10v5#body = 5.275762e-11
m.xm16.msky130_fd_pr__nfet_g5v0d10v5#dbody = 9.448513e-11
m.xm16.msky130_fd_pr__nfet_g5v0d10v5#sbody = 6.378772e-11
m.xm17.msky130_fd_pr__pfet_g5v0d10v5#body = 2.300000e+00
m.xm17.msky130_fd_pr__pfet_g5v0d10v5#dbody = 2.300000e+00
m.xm17.msky130_fd_pr__pfet_g5v0d10v5#sbody = 2.300000e+00
m.xm18.msky130_fd_pr__nfet_g5v0d10v5#body = 1.720258e-11
m.xm18.msky130_fd_pr__nfet_g5v0d10v5#dbody = 4.300635e-11
m.xm18.msky130_fd_pr__nfet_g5v0d10v5#sbody = 8.601370e-12
m.xm19.msky130_fd_pr__nfet_g5v0d10v5#body = 2.646965e-11
m.xm19.msky130_fd_pr__nfet_g5v0d10v5#dbody = 5.087894e-11
m.xm19.msky130_fd_pr__nfet_g5v0d10v5#sbody = 2.853001e-11
m.xm20.msky130_fd_pr__nfet_g5v0d10v5#body = 1.441918e-11
m.xm20.msky130_fd_pr__nfet_g5v0d10v5#dbody = 3.604788e-11
m.xm20.msky130_fd_pr__nfet_g5v0d10v5#sbody = 7.209674e-12
m.xm22.msky130_fd_pr__nfet_g5v0d10v5#body = 1.093201e-11
m.xm22.msky130_fd_pr__nfet_g5v0d10v5#dbody = 2.732993e-11
m.xm22.msky130_fd_pr__nfet_g5v0d10v5#sbody = 5.466117e-12
m.xm24.msky130_fd_pr__pfet_g5v0d10v5#body = 2.300000e+00
m.xm24.msky130_fd_pr__pfet_g5v0d10v5#dbody = 2.300000e+00
m.xm24.msky130_fd_pr__pfet_g5v0d10v5#sbody = 2.300000e+00
m.xm26.msky130_fd_pr__pfet_g5v0d10v5#body = 2.300000e+00
m.xm26.msky130_fd_pr__pfet_g5v0d10v5#dbody = 2.300000e+00
m.xm26.msky130_fd_pr__pfet_g5v0d10v5#sbody = 2.300000e+00
mir = 1.066314e+00
net1 = 6.383714e-01
net2 = 4.686765e-05
net3 = 7.117220e-01
net4 = 1.889932e-01
net5 = 1.081511e+00
net6 = 9.449671e-01
net7 = 7.115859e-01
net8 = 1.157500e+00
net9 = 1.182293e+00
net10 = 1.947872e-01
net11 = 1.215594e+00
net12 = 1.215594e+00
net13 = 0.000000e+00
out = 1.215594e+00
pos = 1.105497e+00
q.xq2.qsky130_fd_pr__pnp_05v5_w0p68l0p68#collcx = 2.930819e-03
q.xq3.qsky130_fd_pr__pnp_05v5_w0p68l0p68#collcx = 3.731638e-04
q.xq4.qsky130_fd_pr__pnp_05v5_w0p68l0p68#collcx = 3.731638e-04
q.xq8.qsky130_fd_pr__pnp_05v5_w0p68l0p68#collcx = 3.731638e-04
q.xq10.qsky130_fd_pr__pnp_05v5_w0p68l0p68#collcx = 3.731638e-04
q.xq12.qsky130_fd_pr__pnp_05v5_w0p68l0p68#collcx = 3.731638e-04
q.xq14.qsky130_fd_pr__pnp_05v5_w0p68l0p68#collcx = 3.731638e-04
q.xq16.qsky130_fd_pr__pnp_05v5_w0p68l0p68#collcx = 3.731638e-04
q.xq18.qsky130_fd_pr__pnp_05v5_w0p68l0p68#collcx = 3.731638e-04
vb = 9.929226e-01
vdd = 2.300000e+00
vs#branch = -1.02402e-02
vt#branch = 0.000000e+00
xc1.a = 0.000000e+00
xc1.b1 = 0.000000e+00
xc3.a = 1.215594e+00
xc3.b1 = 1.215594e+00
xr1.xsky130_fd_pr__res_xhigh_po_0p69.ra = 7.148431e-01
xr2.xsky130_fd_pr__res_xhigh_po_0p69.ra = 7.149792e-01
xr3.xsky130_fd_pr__res_xhigh_po_0p69.ra = 2.006958e-03
xr4.xsky130_fd_pr__res_xhigh_po_0p69.ra = 6.396607e-01
xr5.xsky130_fd_pr__res_xhigh_po_0p69.ra = 2.006552e-03
xr6.xsky130_fd_pr__res_xhigh_po_0p69.ra = 3.447161e-03
xr7.xsky130_fd_pr__res_xhigh_po_0p69.ra = 1.215594e+00
xr8.xsky130_fd_pr__res_xhigh_po_0p69.ra = 1.110732e+00
xr9.xsky130_fd_pr__res_xhigh_po_0p69.ra = 5.404391e-03
Doing analysis at TEMP = 85.000000 and TNOM = 27.000000


No. of Data Rows : 91
Error: no such vector PM
Note: Starting true gmin stepping
Trying gmin =   1.0000E-03 Note: One successful gmin step
Trying gmin =   1.0000E-04 Note: One successful gmin step
Trying gmin =   1.0000E-05 Note: One successful gmin step
Trying gmin =   1.0000E-06 Note: One successful gmin step
Trying gmin =   1.0000E-07 Warning: Further gmin increment
Trying gmin =   5.6234E-07 Note: One successful gmin step
Trying gmin =   2.3714E-07 Note: One successful gmin step
Trying gmin =   6.4938E-08 Warning: Further gmin increment
Trying gmin =   1.7154E-07 Note: One successful gmin step
Trying gmin =   1.0554E-07 Warning: Further gmin increment
Trying gmin =   1.5193E-07 Warning: Further gmin increment
Trying gmin =   1.6641E-07 Note: One successful gmin step
Trying gmin =   1.5901E-07 Warning: Further gmin increment
Trying gmin =   1.6453E-07 Warning: Further gmin increment
Trying gmin =   1.6594E-07 Note: One successful gmin step
Trying gmin =   1.6523E-07 Warning: Further gmin increment
Trying gmin =   1.6576E-07 Note: One successful gmin step
Trying gmin =   1.6550E-07 Note: One successful gmin step
Trying gmin =   1.6510E-07 Warning: Further gmin increment
Trying gmin =   1.6540E-07 Warning: Further gmin increment
Trying gmin =   1.6547E-07 Note: One successful gmin step
Trying gmin =   1.6544E-07 Note: One successful gmin step
Trying gmin =   1.6538E-07 Warning: Further gmin increment
Trying gmin =   1.6542E-07 Warning: Further gmin increment
Trying gmin =   1.6543E-07 Note: One successful gmin step
Trying gmin =   1.6543E-07 Note: One successful gmin step
Trying gmin =   1.6542E-07 Warning: Last gmin step failed
Warning: True gmin stepping failed
Note: Starting dynamic gmin stepping
Trying gmin =   1.0000E-03 Note: One successful gmin step
Trying gmin =   1.0000E-04 Note: One successful gmin step
Trying gmin =   1.0000E-05 Note: One successful gmin step
Trying gmin =   1.0000E-06 Note: One successful gmin step
Trying gmin =   1.0000E-07 Warning: Further gmin increment
Trying gmin =   5.6234E-07 Warning: Further gmin increment
Trying gmin =   8.6596E-07 Note: One successful gmin step
Trying gmin =   6.9783E-07 Warning: Further gmin increment
Trying gmin =   8.2047E-07 Note: One successful gmin step
Trying gmin =   7.5667E-07 Warning: Further gmin increment
Trying gmin =   8.0403E-07 Note: One successful gmin step
Trying gmin =   7.7999E-07 Warning: Further gmin increment
Trying gmin =   7.9795E-07 Note: One successful gmin step
Trying gmin =   7.8892E-07 Warning: Further gmin increment
Trying gmin =   7.9569E-07 Note: One successful gmin step
Trying gmin =   7.9230E-07 Note: One successful gmin step
Trying gmin =   7.8724E-07 Warning: Further gmin increment
Trying gmin =   7.9103E-07 Warning: Further gmin increment
Trying gmin =   7.9198E-07 Note: One successful gmin step
Trying gmin =   7.9150E-07 Warning: Further gmin increment
Trying gmin =   7.9186E-07 Warning: Further gmin increment
Trying gmin =   7.9195E-07 Note: One successful gmin step
Trying gmin =   7.9191E-07 Note: One successful gmin step
Trying gmin =   7.9184E-07 Warning: Further gmin increment
Trying gmin =   7.9189E-07 Note: One successful gmin step
Trying gmin =   7.9186E-07 Note: One successful gmin step
Trying gmin =   7.9183E-07 Warning: Last gmin step failed
Warning: Dynamic gmin stepping failed
Note: Starting source stepping
Supplies reduced to   0.0000% Note: One successful source step
Supplies reduced to   0.1000% Note: One successful source step
Supplies reduced to   0.2000% Note: One successful source step
Supplies reduced to   0.3500% Note: One successful source step
Supplies reduced to   0.5750% Note: One successful source step
Supplies reduced to   0.9125% Note: One successful source step
Supplies reduced to   1.4188% Note: One successful source step
Supplies reduced to   2.1781% Note: One successful source step
Supplies reduced to   3.3172% Note: One successful source step
Supplies reduced to   5.0258% Note: One successful source step
Supplies reduced to   7.5887% Note: One successful source step
Supplies reduced to  11.4330% Note: One successful source step
Supplies reduced to  17.1995% Note: One successful source step
Supplies reduced to  25.8493% Supplies reduced to  17.1995% Note: One successful source step
Supplies reduced to  18.1995% Note: One successful source step
Supplies reduced to  19.6995% Note: One successful source step
Supplies reduced to  21.9495% Note: One successful source step
Supplies reduced to  25.3245% Note: One successful source step
Supplies reduced to  28.6995% Note: One successful source step
Supplies reduced to  32.0745% Note: One successful source step
Supplies reduced to  37.1370% Note: One successful source step
Supplies reduced to  44.7308% Supplies reduced to  37.1370% Note: One successful source step
Supplies reduced to  38.1370% Note: One successful source step
Supplies reduced to  39.6370% Note: One successful source step
Supplies reduced to  41.8870% Note: One successful source step
Supplies reduced to  45.2620% Note: One successful source step
Supplies reduced to  50.3245% Note: One successful source step
Supplies reduced to  57.9183% Note: One successful source step
Supplies reduced to  69.3089% Supplies reduced to  57.9183% Note: One successful source step
Supplies reduced to  58.9183% Note: One successful source step
Supplies reduced to  60.4183% Note: One successful source step
Supplies reduced to  62.6683% Supplies reduced to  60.4183% Note: One successful source step
Supplies reduced to  60.7558% Supplies reduced to  60.4183% Note: One successful source step
Supplies reduced to  60.4689% Note: One successful source step
Supplies reduced to  60.5448% Note: One successful source step
Supplies reduced to  60.6587% Note: One successful source step
Supplies reduced to  60.8296% Supplies reduced to  60.6587% Note: One successful source step
Supplies reduced to  60.6844% Supplies reduced to  60.6587% Note: One successful source step
Supplies reduced to  60.6626% Note: One successful source step
Supplies reduced to  60.6683% Note: One successful source step
Supplies reduced to  60.6770% Supplies reduced to  60.6683% Note: One successful source step
Supplies reduced to  60.6696% Note: One successful source step
Supplies reduced to  60.6716% Note: One successful source step
Supplies reduced to  60.6745% Supplies reduced to  60.6716% Note: One successful source step
Supplies reduced to  60.6720% Note: One successful source step
Supplies reduced to  60.6727% Note: One successful source step
Supplies reduced to  60.6737% Note: One successful source step
Supplies reduced to  60.6751% Supplies reduced to  60.6737% Note: One successful source step
Supplies reduced to  60.6739% Note: One successful source step
Supplies reduced to  60.6742% Supplies reduced to  60.6739% Note: One successful source step
Supplies reduced to  60.6739% Note: One successful source step
Supplies reduced to  60.6740% Note: One successful source step
Supplies reduced to  60.6741% Note: One successful source step
Supplies reduced to  60.6743% Supplies reduced to  60.6741% Note: One successful source step
Supplies reduced to  60.6741% Note: One successful source step
Supplies reduced to  60.6742% Note: One successful source step
Supplies reduced to  60.6742% Warning: source stepping failed
doAnalyses: Too many iterations without convergence

dc simulation(s) aborted
Error(parse.c--checkvalid): vldo_sup_2_8: zero length vector.
Error: RHS "abs((vldo_sup_2_8-vldo_sup_2)/0.8)" invalid
Error(parse.c--checkvalid): line_reg: zero length vector.
Error(parse.c--checkvalid): vin: zero length vector.
Error: RHS "vin-1.764" invalid
Error(parse.c--checkvalid): dropout: zero length vector.
Error: no such vector dropout
Note: No ".plot", ".print", or ".fourier" lines; no simulations run

Error: measure  pm  (AT) : out of interval
 meas ac pm find p when vdb(ldo_out)=0 failed!

Doing analysis at TEMP = 85.000000 and TNOM = 27.000000


No. of Data Rows : 91
psrr100             =  -5.019545e+01
psrr100k            =  -2.429922e+01
Doing analysis at TEMP = 85.000000 and TNOM = 27.000000


No. of Data Rows : 86
temp_coeff = 7.267872e+01
Doing analysis at TEMP = 85.000000 and TNOM = 27.000000


Error: measure  vldo_sup_2  (AT) : out of interval
 meas dc vldo_sup_2 find ldo_out at=2 failed!


Error: measure  vldo_sup_2_8  (AT) : out of interval
 meas dc vldo_sup_2_8 find ldo_out at=2.8 failed!


Error: measure  vin  (WHEN) : out of interval
 meas dc vin when v(ldo_out)=1.764 failed!

