 Reference value :  0.00000e+00
No compatibility mode selected!


Circuit: * ldo netlist 

Doing analysis at TEMP = 85.000000 and TNOM = 27.000000


No. of Data Rows : 1
bg_out = 1.202838e+00
inn = 1.149818e+00
inp = 1.149738e+00
l1#branch = 0.000000e+00
ldo_out = 1.810130e+00
m.xm1.msky130_fd_pr__nfet_g5v0d10v5#body = 2.645832e-11
m.xm1.msky130_fd_pr__nfet_g5v0d10v5#dbody = 4.976561e-11
m.xm1.msky130_fd_pr__nfet_g5v0d10v5#sbody = 2.960934e-11
m.xm2.msky130_fd_pr__pfet_g5v0d10v5#body = 2.100000e+00
m.xm2.msky130_fd_pr__pfet_g5v0d10v5#dbody = 2.100000e+00
m.xm2.msky130_fd_pr__pfet_g5v0d10v5#sbody = 2.100000e+00
m.xm3.msky130_fd_pr__pfet_g5v0d10v5#body = 2.100000e+00
m.xm3.msky130_fd_pr__pfet_g5v0d10v5#dbody = 2.100000e+00
m.xm3.msky130_fd_pr__pfet_g5v0d10v5#sbody = 2.100000e+00
m.xm4.msky130_fd_pr__pfet_g5v0d10v5#body = 2.100000e+00
m.xm4.msky130_fd_pr__pfet_g5v0d10v5#dbody = 2.100000e+00
m.xm4.msky130_fd_pr__pfet_g5v0d10v5#sbody = 2.100000e+00
m.xm5.msky130_fd_pr__pfet_g5v0d10v5#body = 2.100000e+00
m.xm5.msky130_fd_pr__pfet_g5v0d10v5#dbody = 2.100000e+00
m.xm5.msky130_fd_pr__pfet_g5v0d10v5#sbody = 2.100000e+00
m.xm6.msky130_fd_pr__nfet_g5v0d10v5#body = 2.056478e-11
m.xm6.msky130_fd_pr__nfet_g5v0d10v5#dbody = 5.141182e-11
m.xm6.msky130_fd_pr__nfet_g5v0d10v5#sbody = 1.028251e-11
m.xm7.msky130_fd_pr__pfet_g5v0d10v5#body = 2.100000e+00
m.xm7.msky130_fd_pr__pfet_g5v0d10v5#dbody = 2.100000e+00
m.xm7.msky130_fd_pr__pfet_g5v0d10v5#sbody = 2.100000e+00
m.xm8.msky130_fd_pr__pfet_g5v0d10v5#body = 2.100000e+00
m.xm8.msky130_fd_pr__pfet_g5v0d10v5#dbody = 2.100000e+00
m.xm8.msky130_fd_pr__pfet_g5v0d10v5#sbody = 2.100000e+00
m.xm9.msky130_fd_pr__nfet_g5v0d10v5#body = 2.468168e-11
m.xm9.msky130_fd_pr__nfet_g5v0d10v5#dbody = 4.814957e-11
m.xm9.msky130_fd_pr__nfet_g5v0d10v5#sbody = 2.589547e-11
m.xm10.msky130_fd_pr__nfet_g5v0d10v5#body = 2.458698e-11
m.xm10.msky130_fd_pr__nfet_g5v0d10v5#dbody = 4.791282e-11
m.xm10.msky130_fd_pr__nfet_g5v0d10v5#sbody = 2.584812e-11
m.xm11.msky130_fd_pr__pfet_g5v0d10v5#body = 2.100000e+00
m.xm11.msky130_fd_pr__pfet_g5v0d10v5#dbody = 2.100000e+00
m.xm11.msky130_fd_pr__pfet_g5v0d10v5#sbody = 2.100000e+00
m.xm12.msky130_fd_pr__pfet_g5v0d10v5#body = 2.100000e+00
m.xm12.msky130_fd_pr__pfet_g5v0d10v5#dbody = 2.100000e+00
m.xm12.msky130_fd_pr__pfet_g5v0d10v5#sbody = 2.100000e+00
m.xm13.msky130_fd_pr__nfet_g5v0d10v5#body = 5.130488e-12
m.xm13.msky130_fd_pr__nfet_g5v0d10v5#dbody = 1.282615e-11
m.xm13.msky130_fd_pr__nfet_g5v0d10v5#sbody = 2.565313e-12
m.xm14.msky130_fd_pr__pfet_g5v0d10v5#body = 2.100000e+00
m.xm14.msky130_fd_pr__pfet_g5v0d10v5#dbody = 2.100000e+00
m.xm14.msky130_fd_pr__pfet_g5v0d10v5#sbody = 2.100000e+00
m.xm15.msky130_fd_pr__nfet_g5v0d10v5#body = 8.367931e-15
m.xm15.msky130_fd_pr__nfet_g5v0d10v5#dbody = 2.091948e-14
m.xm15.msky130_fd_pr__nfet_g5v0d10v5#sbody = 4.184309e-15
m.xm16.msky130_fd_pr__nfet_g5v0d10v5#body = 5.125128e-11
m.xm16.msky130_fd_pr__nfet_g5v0d10v5#dbody = 8.875420e-11
m.xm16.msky130_fd_pr__nfet_g5v0d10v5#sbody = 6.499964e-11
m.xm17.msky130_fd_pr__pfet_g5v0d10v5#body = 2.100000e+00
m.xm17.msky130_fd_pr__pfet_g5v0d10v5#dbody = 2.100000e+00
m.xm17.msky130_fd_pr__pfet_g5v0d10v5#sbody = 2.100000e+00
m.xm18.msky130_fd_pr__nfet_g5v0d10v5#body = 1.016911e-11
m.xm18.msky130_fd_pr__nfet_g5v0d10v5#dbody = 2.542270e-11
m.xm18.msky130_fd_pr__nfet_g5v0d10v5#sbody = 5.084632e-12
m.xm19.msky130_fd_pr__nfet_g5v0d10v5#body = 2.656127e-11
m.xm19.msky130_fd_pr__nfet_g5v0d10v5#dbody = 5.002298e-11
m.xm19.msky130_fd_pr__nfet_g5v0d10v5#sbody = 2.966082e-11
m.xm20.msky130_fd_pr__nfet_g5v0d10v5#body = 1.462803e-11
m.xm20.msky130_fd_pr__nfet_g5v0d10v5#dbody = 3.656999e-11
m.xm20.msky130_fd_pr__nfet_g5v0d10v5#sbody = 7.314094e-12
m.xm22.msky130_fd_pr__nfet_g5v0d10v5#body = 1.148248e-11
m.xm22.msky130_fd_pr__nfet_g5v0d10v5#dbody = 2.870608e-11
m.xm22.msky130_fd_pr__nfet_g5v0d10v5#sbody = 5.741349e-12
m.xm24.msky130_fd_pr__pfet_g5v0d10v5#body = 2.100000e+00
m.xm24.msky130_fd_pr__pfet_g5v0d10v5#dbody = 2.100000e+00
m.xm24.msky130_fd_pr__pfet_g5v0d10v5#sbody = 2.100000e+00
m.xm26.msky130_fd_pr__pfet_g5v0d10v5#body = 2.100000e+00
m.xm26.msky130_fd_pr__pfet_g5v0d10v5#dbody = 2.100000e+00
m.xm26.msky130_fd_pr__pfet_g5v0d10v5#sbody = 2.100000e+00
mir = 1.036316e+00
net1 = 6.313169e-01
net2 = 1.611885e-05
net3 = 7.051649e-01
net4 = 2.304798e-01
net5 = 1.044552e+00
net6 = 9.563915e-01
net7 = 7.050837e-01
net8 = 1.131453e+00
net9 = 1.139029e+00
net10 = 2.490283e-01
net11 = 6.520277e-01
net12 = 6.520277e-01
net13 = 0.000000e+00
out = 6.520277e-01
pos = 1.202932e+00
q.xq2.qsky130_fd_pr__pnp_05v5_w0p68l0p68#collcx = 3.099927e-03
q.xq3.qsky130_fd_pr__pnp_05v5_w0p68l0p68#collcx = 3.914596e-04
q.xq4.qsky130_fd_pr__pnp_05v5_w0p68l0p68#collcx = 3.914596e-04
q.xq8.qsky130_fd_pr__pnp_05v5_w0p68l0p68#collcx = 3.914596e-04
q.xq10.qsky130_fd_pr__pnp_05v5_w0p68l0p68#collcx = 3.914596e-04
q.xq12.qsky130_fd_pr__pnp_05v5_w0p68l0p68#collcx = 3.914596e-04
q.xq14.qsky130_fd_pr__pnp_05v5_w0p68l0p68#collcx = 3.914596e-04
q.xq16.qsky130_fd_pr__pnp_05v5_w0p68l0p68#collcx = 3.914596e-04
q.xq18.qsky130_fd_pr__pnp_05v5_w0p68l0p68#collcx = 3.914596e-04
vb = 1.008741e+00
vdd = 2.100000e+00
vs#branch = -1.00704e-01
vt#branch = 0.000000e+00
xc1.a = 0.000000e+00
xc1.b1 = 0.000000e+00
xc3.a = 6.520277e-01
xc3.b1 = 6.520277e-01
xr1.xsky130_fd_pr__res_xhigh_po_0p69.ra = 7.082584e-01
xr2.xsky130_fd_pr__res_xhigh_po_0p69.ra = 7.083396e-01
xr3.xsky130_fd_pr__res_xhigh_po_0p69.ra = 1.893284e-03
xr4.xsky130_fd_pr__res_xhigh_po_0p69.ra = 6.326160e-01
xr5.xsky130_fd_pr__res_xhigh_po_0p69.ra = 1.893053e-03
xr6.xsky130_fd_pr__res_xhigh_po_0p69.ra = 3.362088e-03
xr7.xsky130_fd_pr__res_xhigh_po_0p69.ra = 6.520277e-01
xr8.xsky130_fd_pr__res_xhigh_po_0p69.ra = 1.208518e+00
xr9.xsky130_fd_pr__res_xhigh_po_0p69.ra = 5.859274e-03
Doing analysis at TEMP = 85.000000 and TNOM = 27.000000


No. of Data Rows : 91
Note: Starting true gmin stepping
Trying gmin =   1.0000E-03 Note: One successful gmin step
Trying gmin =   1.0000E-04 Note: One successful gmin step
Trying gmin =   1.0000E-05 Note: One successful gmin step
Trying gmin =   1.0000E-06 Note: One successful gmin step
Trying gmin =   1.0000E-07 Warning: Further gmin increment
Trying gmin =   5.6234E-07 Note: One successful gmin step
Trying gmin =   2.3714E-07 Note: One successful gmin step
Trying gmin =   6.4938E-08 Warning: Further gmin increment
Trying gmin =   1.7154E-07 Note: One successful gmin step
Trying gmin =   1.0554E-07 Warning: Further gmin increment
Trying gmin =   1.5193E-07 Warning: Further gmin increment
Trying gmin =   1.6641E-07 Note: One successful gmin step
Trying gmin =   1.5901E-07 Warning: Further gmin increment
Trying gmin =   1.6453E-07 Note: One successful gmin step
Trying gmin =   1.6175E-07 Warning: Further gmin increment
Trying gmin =   1.6383E-07 Note: One successful gmin step
Trying gmin =   1.6278E-07 Warning: Further gmin increment
Trying gmin =   1.6357E-07 Note: One successful gmin step
Trying gmin =   1.6318E-07 Warning: Further gmin increment
Trying gmin =   1.6347E-07 Note: One successful gmin step
Trying gmin =   1.6332E-07 Warning: Further gmin increment
Trying gmin =   1.6343E-07 Note: One successful gmin step
Trying gmin =   1.6338E-07 Note: One successful gmin step
Trying gmin =   1.6330E-07 Warning: Further gmin increment
Trying gmin =   1.6336E-07 Warning: Further gmin increment
Trying gmin =   1.6337E-07 Note: One successful gmin step
Trying gmin =   1.6336E-07 Note: One successful gmin step
Trying gmin =   1.6335E-07 Warning: Further gmin increment
Trying gmin =   1.6336E-07 Note: One successful gmin step
Trying gmin =   1.6336E-07 Warning: Last gmin step failed
Warning: True gmin stepping failed
Note: Starting dynamic gmin stepping
Trying gmin =   1.0000E-03 Note: One successful gmin step
Trying gmin =   1.0000E-04 Note: One successful gmin step
Trying gmin =   1.0000E-05 Note: One successful gmin step
Trying gmin =   1.0000E-06 Note: One successful gmin step
Trying gmin =   1.0000E-07 Note: One successful gmin step
Trying gmin =   1.0000E-08 Note: One successful gmin step
Trying gmin =   1.0000E-09 Note: One successful gmin step
Trying gmin =   1.0000E-10 Note: One successful gmin step
Trying gmin =   1.0000E-11 Note: One successful gmin step
Trying gmin =   1.0000E-12 Note: One successful gmin step
Trying gmin =   1.0000E-12 Note: One successful gmin step
Note: Dynamic gmin stepping completed
 Reference value :  2.80000e+00Note: Starting true gmin stepping
Trying gmin =   1.0000E-03 Note: One successful gmin step
Trying gmin =   1.0000E-04 Note: One successful gmin step
Trying gmin =   1.0000E-05 Note: One successful gmin step
Trying gmin =   1.0000E-06 Note: One successful gmin step
Trying gmin =   1.0000E-07 Note: One successful gmin step
Trying gmin =   1.0000E-08 Note: One successful gmin step
Trying gmin =   3.1623E-09 Note: One successful gmin step
Trying gmin =   5.6234E-10 Warning: Further gmin increment
Trying gmin =   2.0535E-09 Note: One successful gmin step
Trying gmin =   1.0746E-09 Note: One successful gmin step
Trying gmin =   4.0679E-10 Note: One successful gmin step
Trying gmin =   9.4746E-11 Warning: Further gmin increment
Trying gmin =   2.8260E-10 Note: One successful gmin step
Trying gmin =   1.6363E-10 Note: One successful gmin step
Trying gmin =   7.2096E-11 Note: One successful gmin step
Trying gmin =   2.1085E-11 Note: One successful gmin step
Trying gmin =   3.3348E-12 Note: One successful gmin step
Trying gmin =   1.0000E-12 Note: One successful gmin step
Note: True gmin stepping completed
 Reference value :  1.06000e+00Note: Starting true gmin stepping
Trying gmin =   1.0000E-03 Note: One successful gmin step
Trying gmin =   1.0000E-04 Note: One successful gmin step
Trying gmin =   1.0000E-05 Note: One successful gmin step
Trying gmin =   1.0000E-06 Note: One successful gmin step
Trying gmin =   1.0000E-07 Note: One successful gmin step
Trying gmin =   1.0000E-08 Note: One successful gmin step
Trying gmin =   1.0000E-09 Note: One successful gmin step
Trying gmin =   1.0000E-10 Warning: Further gmin increment
Trying gmin =   5.6234E-10 Note: One successful gmin step
Trying gmin =   2.3714E-10 Note: One successful gmin step
Trying gmin =   6.4938E-11 Warning: Further gmin increment
Trying gmin =   1.7154E-10 Note: One successful gmin step
Trying gmin =   1.2409E-10 Note: One successful gmin step
Trying gmin =   7.6351E-11 Note: One successful gmin step
Trying gmin =   3.6847E-11 Note: One successful gmin step
Trying gmin =   1.2354E-11 Note: One successful gmin step
Trying gmin =   2.3982E-12 Note: One successful gmin step
Trying gmin =   1.0000E-12 Note: One successful gmin step
Note: True gmin stepping completed
 Reference value :  3.00000e-01pm                  =  1.018982e+02
Doing analysis at TEMP = 85.000000 and TNOM = 27.000000


No. of Data Rows : 91
psrr100             =  -4.562543e+01
psrr100k            =  -1.861677e+01
Doing analysis at TEMP = 85.000000 and TNOM = 27.000000


No. of Data Rows : 86
temp_coeff = 1.510893e+02
Doing analysis at TEMP = 85.000000 and TNOM = 27.000000


No. of Data Rows : 141
vldo_sup_2          =  1.809425e+00
vldo_sup_2_8        =  1.812011e+00
line_reg = 3.232500e-03
Note: No ".plot", ".print", or ".fourier" lines; no simulations run
vin                 =  1.916112e+00
dropout = 1.521120e-01
