 Reference value :  0.00000e+00
No compatibility mode selected!


Circuit: * ldo netlist 

Doing analysis at TEMP = 85.000000 and TNOM = 27.000000


No. of Data Rows : 1
bg_out = 1.101751e+00
inn = 1.064458e+00
inp = 1.064324e+00
l1#branch = 0.000000e+00
ldo_out = 1.811757e+00
m.xm1.msky130_fd_pr__nfet_g5v0d10v5#body = 2.817161e-11
m.xm1.msky130_fd_pr__nfet_g5v0d10v5#dbody = 5.556576e-11
m.xm1.msky130_fd_pr__nfet_g5v0d10v5#sbody = 2.894907e-11
m.xm2.msky130_fd_pr__pfet_g5v0d10v5#body = 2.300000e+00
m.xm2.msky130_fd_pr__pfet_g5v0d10v5#dbody = 2.300000e+00
m.xm2.msky130_fd_pr__pfet_g5v0d10v5#sbody = 2.300000e+00
m.xm3.msky130_fd_pr__pfet_g5v0d10v5#body = 2.300000e+00
m.xm3.msky130_fd_pr__pfet_g5v0d10v5#dbody = 2.300000e+00
m.xm3.msky130_fd_pr__pfet_g5v0d10v5#sbody = 2.300000e+00
m.xm4.msky130_fd_pr__pfet_g5v0d10v5#body = 2.300000e+00
m.xm4.msky130_fd_pr__pfet_g5v0d10v5#dbody = 2.300000e+00
m.xm4.msky130_fd_pr__pfet_g5v0d10v5#sbody = 2.300000e+00
m.xm5.msky130_fd_pr__pfet_g5v0d10v5#body = 2.300000e+00
m.xm5.msky130_fd_pr__pfet_g5v0d10v5#dbody = 2.300000e+00
m.xm5.msky130_fd_pr__pfet_g5v0d10v5#sbody = 2.300000e+00
m.xm6.msky130_fd_pr__nfet_g5v0d10v5#body = 2.059921e-11
m.xm6.msky130_fd_pr__nfet_g5v0d10v5#dbody = 5.149790e-11
m.xm6.msky130_fd_pr__nfet_g5v0d10v5#sbody = 1.029973e-11
m.xm7.msky130_fd_pr__pfet_g5v0d10v5#body = 2.300000e+00
m.xm7.msky130_fd_pr__pfet_g5v0d10v5#dbody = 2.300000e+00
m.xm7.msky130_fd_pr__pfet_g5v0d10v5#sbody = 2.300000e+00
m.xm8.msky130_fd_pr__pfet_g5v0d10v5#body = 2.300000e+00
m.xm8.msky130_fd_pr__pfet_g5v0d10v5#dbody = 2.300000e+00
m.xm8.msky130_fd_pr__pfet_g5v0d10v5#sbody = 2.300000e+00
m.xm9.msky130_fd_pr__nfet_g5v0d10v5#body = 2.638022e-11
m.xm9.msky130_fd_pr__nfet_g5v0d10v5#dbody = 5.414934e-11
m.xm9.msky130_fd_pr__nfet_g5v0d10v5#sbody = 2.499130e-11
m.xm10.msky130_fd_pr__nfet_g5v0d10v5#body = 2.604743e-11
m.xm10.msky130_fd_pr__nfet_g5v0d10v5#dbody = 5.331739e-11
m.xm10.msky130_fd_pr__nfet_g5v0d10v5#sbody = 2.482491e-11
m.xm11.msky130_fd_pr__pfet_g5v0d10v5#body = 2.300000e+00
m.xm11.msky130_fd_pr__pfet_g5v0d10v5#dbody = 2.300000e+00
m.xm11.msky130_fd_pr__pfet_g5v0d10v5#sbody = 2.300000e+00
m.xm12.msky130_fd_pr__pfet_g5v0d10v5#body = 2.300000e+00
m.xm12.msky130_fd_pr__pfet_g5v0d10v5#dbody = 2.300000e+00
m.xm12.msky130_fd_pr__pfet_g5v0d10v5#sbody = 2.300000e+00
m.xm13.msky130_fd_pr__nfet_g5v0d10v5#body = 4.260181e-12
m.xm13.msky130_fd_pr__nfet_g5v0d10v5#dbody = 1.065039e-11
m.xm13.msky130_fd_pr__nfet_g5v0d10v5#sbody = 2.130156e-12
m.xm14.msky130_fd_pr__pfet_g5v0d10v5#body = 2.300000e+00
m.xm14.msky130_fd_pr__pfet_g5v0d10v5#dbody = 2.300000e+00
m.xm14.msky130_fd_pr__pfet_g5v0d10v5#sbody = 2.300000e+00
m.xm15.msky130_fd_pr__nfet_g5v0d10v5#body = 8.089151e-14
m.xm15.msky130_fd_pr__nfet_g5v0d10v5#dbody = 2.022265e-13
m.xm15.msky130_fd_pr__nfet_g5v0d10v5#sbody = 4.044805e-14
m.xm16.msky130_fd_pr__nfet_g5v0d10v5#body = 5.268428e-11
m.xm16.msky130_fd_pr__nfet_g5v0d10v5#dbody = 9.447070e-11
m.xm16.msky130_fd_pr__nfet_g5v0d10v5#sbody = 6.358214e-11
m.xm17.msky130_fd_pr__pfet_g5v0d10v5#body = 2.300000e+00
m.xm17.msky130_fd_pr__pfet_g5v0d10v5#dbody = 2.300000e+00
m.xm17.msky130_fd_pr__pfet_g5v0d10v5#sbody = 2.300000e+00
m.xm18.msky130_fd_pr__nfet_g5v0d10v5#body = 1.961342e-11
m.xm18.msky130_fd_pr__nfet_g5v0d10v5#dbody = 4.903240e-11
m.xm18.msky130_fd_pr__nfet_g5v0d10v5#sbody = 9.806794e-12
m.xm19.msky130_fd_pr__nfet_g5v0d10v5#body = 2.837400e-11
m.xm19.msky130_fd_pr__nfet_g5v0d10v5#dbody = 5.607173e-11
m.xm19.msky130_fd_pr__nfet_g5v0d10v5#sbody = 2.905027e-11
m.xm20.msky130_fd_pr__nfet_g5v0d10v5#body = 1.466524e-11
m.xm20.msky130_fd_pr__nfet_g5v0d10v5#dbody = 3.666302e-11
m.xm20.msky130_fd_pr__nfet_g5v0d10v5#sbody = 7.332702e-12
m.xm22.msky130_fd_pr__nfet_g5v0d10v5#body = 1.070845e-11
m.xm22.msky130_fd_pr__nfet_g5v0d10v5#dbody = 2.677102e-11
m.xm22.msky130_fd_pr__nfet_g5v0d10v5#sbody = 5.354332e-12
m.xm24.msky130_fd_pr__pfet_g5v0d10v5#body = 2.300000e+00
m.xm24.msky130_fd_pr__pfet_g5v0d10v5#dbody = 2.300000e+00
m.xm24.msky130_fd_pr__pfet_g5v0d10v5#sbody = 2.300000e+00
m.xm26.msky130_fd_pr__pfet_g5v0d10v5#body = 2.300000e+00
m.xm26.msky130_fd_pr__pfet_g5v0d10v5#dbody = 2.300000e+00
m.xm26.msky130_fd_pr__pfet_g5v0d10v5#sbody = 2.300000e+00
mir = 1.234056e+00
net1 = 6.312875e-01
net2 = 1.561389e-04
net3 = 7.051245e-01
net4 = 1.718108e-01
net5 = 1.250247e+00
net6 = 9.591460e-01
net7 = 7.049888e-01
net8 = 1.318426e+00
net9 = 1.345049e+00
net10 = 1.800324e-01
net11 = 1.407529e+00
net12 = 1.407529e+00
net13 = 0.000000e+00
out = 1.407529e+00
pos = 1.102045e+00
q.xq2.qsky130_fd_pr__pnp_05v5_w0p68l0p68#collcx = 3.096816e-03
q.xq3.qsky130_fd_pr__pnp_05v5_w0p68l0p68#collcx = 3.911122e-04
q.xq4.qsky130_fd_pr__pnp_05v5_w0p68l0p68#collcx = 3.911122e-04
q.xq8.qsky130_fd_pr__pnp_05v5_w0p68l0p68#collcx = 3.911122e-04
q.xq10.qsky130_fd_pr__pnp_05v5_w0p68l0p68#collcx = 3.911122e-04
q.xq12.qsky130_fd_pr__pnp_05v5_w0p68l0p68#collcx = 3.911122e-04
q.xq14.qsky130_fd_pr__pnp_05v5_w0p68l0p68#collcx = 3.911122e-04
q.xq16.qsky130_fd_pr__pnp_05v5_w0p68l0p68#collcx = 3.911122e-04
q.xq18.qsky130_fd_pr__pnp_05v5_w0p68l0p68#collcx = 3.911122e-04
vb = 1.011718e+00
vdd = 2.300000e+00
vs#branch = -1.02081e-02
vt#branch = 0.000000e+00
xc1.a = 0.000000e+00
xc1.b1 = 0.000000e+00
xc3.a = 1.407529e+00
xc3.b1 = 1.407529e+00
xr1.xsky130_fd_pr__res_xhigh_po_0p69.ra = 7.082364e-01
xr2.xsky130_fd_pr__res_xhigh_po_0p69.ra = 7.083721e-01
xr3.xsky130_fd_pr__res_xhigh_po_0p69.ra = 1.987268e-03
xr4.xsky130_fd_pr__res_xhigh_po_0p69.ra = 6.325854e-01
xr5.xsky130_fd_pr__res_xhigh_po_0p69.ra = 1.986863e-03
xr6.xsky130_fd_pr__res_xhigh_po_0p69.ra = 3.435416e-03
xr7.xsky130_fd_pr__res_xhigh_po_0p69.ra = 1.407529e+00
xr8.xsky130_fd_pr__res_xhigh_po_0p69.ra = 1.107262e+00
xr9.xsky130_fd_pr__res_xhigh_po_0p69.ra = 5.386073e-03
Doing analysis at TEMP = 85.000000 and TNOM = 27.000000


No. of Data Rows : 91
Error: no such vector PM
Note: Starting true gmin stepping
Trying gmin =   1.0000E-03 Note: One successful gmin step
Trying gmin =   1.0000E-04 Note: One successful gmin step
Trying gmin =   1.0000E-05 Note: One successful gmin step
Trying gmin =   1.0000E-06 Warning: Further gmin increment
Trying gmin =   5.6234E-06 Note: One successful gmin step
Trying gmin =   2.3714E-06 Warning: Further gmin increment
Trying gmin =   4.5316E-06 Note: One successful gmin step
Trying gmin =   3.2781E-06 Note: One successful gmin step
Trying gmin =   2.0169E-06 Warning: Further gmin increment
Trying gmin =   2.9033E-06 Note: One successful gmin step
Trying gmin =   2.4199E-06 Warning: Further gmin increment
Trying gmin =   2.7741E-06 Note: One successful gmin step
Trying gmin =   2.5909E-06 Note: One successful gmin step
Trying gmin =   2.3386E-06 Note: One successful gmin step
Trying gmin =   2.0055E-06 Note: One successful gmin step
Trying gmin =   1.5926E-06 Note: One successful gmin step
Trying gmin =   1.1270E-06 Note: One successful gmin step
Trying gmin =   6.7093E-07 Note: One successful gmin step
Trying gmin =   3.0818E-07 Note: One successful gmin step
Trying gmin =   9.5935E-08 Note: One successful gmin step
Trying gmin =   1.6663E-08 Note: One successful gmin step
Trying gmin =   1.6663E-09 Note: One successful gmin step
Trying gmin =   1.6663E-10 Note: One successful gmin step
Trying gmin =   1.6663E-11 Note: One successful gmin step
Trying gmin =   1.6663E-12 Note: One successful gmin step
Trying gmin =   1.0000E-12 Note: One successful gmin step
Note: True gmin stepping completed
 Reference value :  2.80000e+00Note: Starting true gmin stepping
Trying gmin =   1.0000E-03 Note: One successful gmin step
Trying gmin =   1.0000E-04 Note: One successful gmin step
Trying gmin =   1.0000E-05 Note: One successful gmin step
Trying gmin =   1.0000E-06 Note: One successful gmin step
Trying gmin =   1.0000E-07 Note: One successful gmin step
Trying gmin =   1.0000E-08 Note: One successful gmin step
Trying gmin =   1.0000E-09 Note: One successful gmin step
Trying gmin =   1.0000E-10 Warning: Further gmin increment
Trying gmin =   5.6234E-10 Note: One successful gmin step
Trying gmin =   2.3714E-10 Note: One successful gmin step
Trying gmin =   6.4938E-11 Warning: Further gmin increment
Trying gmin =   1.7154E-10 Note: One successful gmin step
Trying gmin =   1.0554E-10 Note: One successful gmin step
Trying gmin =   5.0937E-11 Note: One successful gmin step
Trying gmin =   1.7077E-11 Note: One successful gmin step
Trying gmin =   3.3152E-12 Note: One successful gmin step
Trying gmin =   1.0000E-12 Note: One successful gmin step
Note: True gmin stepping completed
 Reference value :  1.04000e+00Note: Starting true gmin stepping
Trying gmin =   1.0000E-03 Note: One successful gmin step
Trying gmin =   1.0000E-04 Note: One successful gmin step
Trying gmin =   1.0000E-05 Note: One successful gmin step
Trying gmin =   1.0000E-06 Note: One successful gmin step
Trying gmin =   1.0000E-07 Note: One successful gmin step
Trying gmin =   1.0000E-08 Note: One successful gmin step
Trying gmin =   1.0000E-09 Note: One successful gmin step
Trying gmin =   1.0000E-10 Note: One successful gmin step
Trying gmin =   1.0000E-11 Note: One successful gmin step
Trying gmin =   3.1623E-12 Note: One successful gmin step
Trying gmin =   1.0000E-12 Warning: Further gmin increment
Trying gmin =   2.3714E-12 Note: One successful gmin step
Trying gmin =   1.5399E-12 Note: One successful gmin step
Trying gmin =   1.0000E-12 Warning: Further gmin increment
Trying gmin =   1.3824E-12 Note: One successful gmin step
Trying gmin =   1.1757E-12 Note: One successful gmin step
Trying gmin =   1.0000E-12 Warning: Further gmin increment
Trying gmin =   1.1291E-12 Note: One successful gmin step
Trying gmin =   1.0626E-12 Note: One successful gmin step
Trying gmin =   1.0000E-12 Warning: Further gmin increment
Trying gmin =   1.0466E-12 Note: One successful gmin step
Trying gmin =   1.0230E-12 Note: One successful gmin step
Trying gmin =   1.0000E-12 Warning: Further gmin increment
Trying gmin =   1.0172E-12 Note: One successful gmin step
Trying gmin =   1.0086E-12 Note: One successful gmin step
Trying gmin =   1.0000E-12 Warning: Further gmin increment
Trying gmin =   1.0064E-12 Note: One successful gmin step
Trying gmin =   1.0032E-12 Note: One successful gmin step
Trying gmin =   1.0000E-12 Warning: Further gmin increment
Trying gmin =   1.0024E-12 Note: One successful gmin step
Trying gmin =   1.0012E-12 Note: One successful gmin step
Trying gmin =   1.0000E-12 Warning: Further gmin increment
Trying gmin =   1.0009E-12 Note: One successful gmin step
Trying gmin =   1.0005E-12 Warning: Further gmin increment
Trying gmin =   1.0008E-12 Note: One successful gmin step
Trying gmin =   1.0007E-12 Warning: Further gmin increment
Trying gmin =   1.0008E-12 Note: One successful gmin step
Trying gmin =   1.0007E-12 Note: One successful gmin step
Trying gmin =   1.0007E-12 Note: One successful gmin step
Trying gmin =   1.0006E-12 Warning: Further gmin increment
Trying gmin =   1.0007E-12 Warning: Last gmin step failed
Warning: True gmin stepping failed
Note: Starting dynamic gmin stepping
Trying gmin =   1.0000E-03 Note: One successful gmin step
Trying gmin =   1.0000E-04 Note: One successful gmin step
Trying gmin =   1.0000E-05 Note: One successful gmin step
Trying gmin =   1.0000E-06 Note: One successful gmin step
Trying gmin =   1.0000E-07 Note: One successful gmin step
Trying gmin =   1.0000E-08 Note: One successful gmin step
Trying gmin =   1.0000E-09 Note: One successful gmin step
Trying gmin =   1.0000E-10 Note: One successful gmin step
Trying gmin =   1.0000E-11 Note: One successful gmin step
Trying gmin =   3.1623E-12 Note: One successful gmin step
Trying gmin =   1.0000E-12 Note: One successful gmin step
Trying gmin =   1.0000E-12 Note: One successful gmin step
Warning: Dynamic gmin stepping failed
Note: Starting source stepping
Supplies reduced to   0.0000% Note: One successful source step
Supplies reduced to   0.1000% Note: One successful source step
Supplies reduced to   0.2000% Note: One successful source step
Supplies reduced to   0.3500% Note: One successful source step
Supplies reduced to   0.5750% Note: One successful source step
Supplies reduced to   0.9125% Note: One successful source step
Supplies reduced to   1.4188% Note: One successful source step
Supplies reduced to   2.1781% Note: One successful source step
Supplies reduced to   3.3172% Note: One successful source step
Supplies reduced to   5.0258% Note: One successful source step
Supplies reduced to   7.5887% Note: One successful source step
Supplies reduced to  11.4330% Note: One successful source step
Supplies reduced to  17.1995% Note: One successful source step
Supplies reduced to  25.8493% Note: One successful source step
Supplies reduced to  38.8239% Note: One successful source step
Supplies reduced to  58.2859% Note: One successful source step
Supplies reduced to  87.4788% Note: One successful source step
Supplies reduced to 100.0000% Supplies reduced to  87.4788% Note: One successful source step
Supplies reduced to  88.4788% Note: One successful source step
Supplies reduced to  89.9788% Note: One successful source step
Supplies reduced to  91.4788% Note: One successful source step
Supplies reduced to  93.7288% Note: One successful source step
Supplies reduced to  95.9788% Note: One successful source step
Supplies reduced to  98.2288% Note: One successful source step
Supplies reduced to 100.0000% Supplies reduced to  98.2288% Note: One successful source step
Supplies reduced to  98.7350% Note: One successful source step
Supplies reduced to  99.4944% Note: One successful source step
Supplies reduced to 100.0000% Supplies reduced to  99.4944% Note: One successful source step
Supplies reduced to  99.6653% Note: One successful source step
Supplies reduced to  99.9216% Note: One successful source step
Supplies reduced to 100.0000% Supplies reduced to  99.9216% Note: One successful source step
Supplies reduced to  99.9600% Note: One successful source step
Supplies reduced to  99.9984% Supplies reduced to  99.9600% Warning: source stepping failed
doAnalyses: Too many iterations without convergence

dc simulation(s) aborted

Error: measure  pm  (AT) : out of interval
 meas ac pm find p when vdb(ldo_out)=0 failed!

Doing analysis at TEMP = 85.000000 and TNOM = 27.000000


No. of Data Rows : 91
psrr100             =  -5.124336e+01
psrr100k            =  -2.632373e+01
Doing analysis at TEMP = 85.000000 and TNOM = 27.000000


No. of Data Rows : 86
temp_coeff = 5.904375e+01
Doing analysis at TEMP = 85.000000 and TNOM = 27.000000

vldo_sup_2          =  1.810641e+00
vldo_sup_2_8        =  1.812735e+00
line_reg = 2.617500e-03
Note: No ".plot", ".print", or ".fourier" lines; no simulations run
vin                 =  1.779510e+00
dropout = 1.551000e-02
