 Reference value :  0.00000e+00
No compatibility mode selected!


Circuit: * ldo netlist 

Doing analysis at TEMP = 27.000000 and TNOM = 27.000000


No. of Data Rows : 1
bg_out = 1.190825e+00
inn = 1.219874e+00
inp = 1.219860e+00
l1#branch = 0.000000e+00
ldo_out = 1.791906e+00
m.xm1.msky130_fd_pr__nfet_g5v0d10v5#body = 1.830182e-11
m.xm1.msky130_fd_pr__nfet_g5v0d10v5#dbody = 3.773181e-11
m.xm1.msky130_fd_pr__nfet_g5v0d10v5#sbody = 1.717364e-11
m.xm2.msky130_fd_pr__pfet_g5v0d10v5#body = 2.300000e+00
m.xm2.msky130_fd_pr__pfet_g5v0d10v5#dbody = 2.300000e+00
m.xm2.msky130_fd_pr__pfet_g5v0d10v5#sbody = 2.300000e+00
m.xm3.msky130_fd_pr__pfet_g5v0d10v5#body = 2.300000e+00
m.xm3.msky130_fd_pr__pfet_g5v0d10v5#dbody = 2.300000e+00
m.xm3.msky130_fd_pr__pfet_g5v0d10v5#sbody = 2.300000e+00
m.xm4.msky130_fd_pr__pfet_g5v0d10v5#body = 2.300000e+00
m.xm4.msky130_fd_pr__pfet_g5v0d10v5#dbody = 2.300000e+00
m.xm4.msky130_fd_pr__pfet_g5v0d10v5#sbody = 2.300000e+00
m.xm5.msky130_fd_pr__pfet_g5v0d10v5#body = 2.300000e+00
m.xm5.msky130_fd_pr__pfet_g5v0d10v5#dbody = 2.300000e+00
m.xm5.msky130_fd_pr__pfet_g5v0d10v5#sbody = 2.300000e+00
m.xm6.msky130_fd_pr__nfet_g5v0d10v5#body = 1.134085e-11
m.xm6.msky130_fd_pr__nfet_g5v0d10v5#dbody = 2.835211e-11
m.xm6.msky130_fd_pr__nfet_g5v0d10v5#sbody = 5.670429e-12
m.xm7.msky130_fd_pr__pfet_g5v0d10v5#body = 2.300000e+00
m.xm7.msky130_fd_pr__pfet_g5v0d10v5#dbody = 2.300000e+00
m.xm7.msky130_fd_pr__pfet_g5v0d10v5#sbody = 2.300000e+00
m.xm8.msky130_fd_pr__pfet_g5v0d10v5#body = 2.300000e+00
m.xm8.msky130_fd_pr__pfet_g5v0d10v5#dbody = 2.300000e+00
m.xm8.msky130_fd_pr__pfet_g5v0d10v5#sbody = 2.300000e+00
m.xm9.msky130_fd_pr__nfet_g5v0d10v5#body = 1.896582e-11
m.xm9.msky130_fd_pr__nfet_g5v0d10v5#dbody = 4.024633e-11
m.xm9.msky130_fd_pr__nfet_g5v0d10v5#sbody = 1.665113e-11
m.xm10.msky130_fd_pr__nfet_g5v0d10v5#body = 1.880276e-11
m.xm10.msky130_fd_pr__nfet_g5v0d10v5#dbody = 3.983868e-11
m.xm10.msky130_fd_pr__nfet_g5v0d10v5#sbody = 1.656960e-11
m.xm11.msky130_fd_pr__pfet_g5v0d10v5#body = 2.300000e+00
m.xm11.msky130_fd_pr__pfet_g5v0d10v5#dbody = 2.300000e+00
m.xm11.msky130_fd_pr__pfet_g5v0d10v5#sbody = 2.300000e+00
m.xm12.msky130_fd_pr__pfet_g5v0d10v5#body = 2.300000e+00
m.xm12.msky130_fd_pr__pfet_g5v0d10v5#dbody = 2.300000e+00
m.xm12.msky130_fd_pr__pfet_g5v0d10v5#sbody = 2.300000e+00
m.xm13.msky130_fd_pr__nfet_g5v0d10v5#body = 3.582753e-12
m.xm13.msky130_fd_pr__nfet_g5v0d10v5#dbody = 8.956869e-12
m.xm13.msky130_fd_pr__nfet_g5v0d10v5#sbody = 1.791388e-12
m.xm14.msky130_fd_pr__pfet_g5v0d10v5#body = 2.300000e+00
m.xm14.msky130_fd_pr__pfet_g5v0d10v5#dbody = 2.300000e+00
m.xm14.msky130_fd_pr__pfet_g5v0d10v5#sbody = 2.300000e+00
m.xm15.msky130_fd_pr__nfet_g5v0d10v5#body = 2.403623e-16
m.xm15.msky130_fd_pr__nfet_g5v0d10v5#dbody = 6.008844e-16
m.xm15.msky130_fd_pr__nfet_g5v0d10v5#sbody = 1.202024e-16
m.xm16.msky130_fd_pr__nfet_g5v0d10v5#body = 4.400707e-11
m.xm16.msky130_fd_pr__nfet_g5v0d10v5#dbody = 7.951218e-11
m.xm16.msky130_fd_pr__nfet_g5v0d10v5#sbody = 5.250903e-11
m.xm17.msky130_fd_pr__pfet_g5v0d10v5#body = 2.300000e+00
m.xm17.msky130_fd_pr__pfet_g5v0d10v5#dbody = 2.300000e+00
m.xm17.msky130_fd_pr__pfet_g5v0d10v5#sbody = 2.300000e+00
m.xm18.msky130_fd_pr__nfet_g5v0d10v5#body = 1.615835e-11
m.xm18.msky130_fd_pr__nfet_g5v0d10v5#dbody = 4.039567e-11
m.xm18.msky130_fd_pr__nfet_g5v0d10v5#sbody = 8.079188e-12
m.xm19.msky130_fd_pr__nfet_g5v0d10v5#body = 1.832352e-11
m.xm19.msky130_fd_pr__nfet_g5v0d10v5#dbody = 3.778608e-11
m.xm19.msky130_fd_pr__nfet_g5v0d10v5#sbody = 1.718449e-11
m.xm20.msky130_fd_pr__nfet_g5v0d10v5#body = 1.136244e-11
m.xm20.msky130_fd_pr__nfet_g5v0d10v5#dbody = 2.840607e-11
m.xm20.msky130_fd_pr__nfet_g5v0d10v5#sbody = 5.681231e-12
m.xm22.msky130_fd_pr__nfet_g5v0d10v5#body = 4.014077e-12
m.xm22.msky130_fd_pr__nfet_g5v0d10v5#dbody = 1.003519e-11
m.xm22.msky130_fd_pr__nfet_g5v0d10v5#sbody = 2.007044e-12
m.xm24.msky130_fd_pr__pfet_g5v0d10v5#body = 2.300000e+00
m.xm24.msky130_fd_pr__pfet_g5v0d10v5#dbody = 2.300000e+00
m.xm24.msky130_fd_pr__pfet_g5v0d10v5#sbody = 2.300000e+00
m.xm26.msky130_fd_pr__pfet_g5v0d10v5#body = 2.300000e+00
m.xm26.msky130_fd_pr__pfet_g5v0d10v5#dbody = 2.300000e+00
m.xm26.msky130_fd_pr__pfet_g5v0d10v5#sbody = 2.300000e+00
mir = 1.142890e+00
net1 = 7.215563e-01
net2 = 1.849521e-05
net3 = 7.815471e-01
net4 = 3.205631e-01
net5 = 1.144627e+00
net6 = 9.067046e-01
net7 = 7.815325e-01
net8 = 1.217255e+00
net9 = 1.230299e+00
net10 = 2.864913e-01
net11 = 1.292532e+00
net12 = 1.292532e+00
net13 = 0.000000e+00
out = 1.292532e+00
pos = 1.190955e+00
q.xq2.qsky130_fd_pr__pnp_05v5_w0p68l0p68#collcx = 2.339386e-03
q.xq3.qsky130_fd_pr__pnp_05v5_w0p68l0p68#collcx = 2.940161e-04
q.xq4.qsky130_fd_pr__pnp_05v5_w0p68l0p68#collcx = 2.940161e-04
q.xq8.qsky130_fd_pr__pnp_05v5_w0p68l0p68#collcx = 2.940161e-04
q.xq10.qsky130_fd_pr__pnp_05v5_w0p68l0p68#collcx = 2.940161e-04
q.xq12.qsky130_fd_pr__pnp_05v5_w0p68l0p68#collcx = 2.940161e-04
q.xq14.qsky130_fd_pr__pnp_05v5_w0p68l0p68#collcx = 2.940161e-04
q.xq16.qsky130_fd_pr__pnp_05v5_w0p68l0p68#collcx = 2.940161e-04
q.xq18.qsky130_fd_pr__pnp_05v5_w0p68l0p68#collcx = 2.940161e-04
vb = 9.088659e-01
vdd = 2.300000e+00
vs#branch = -1.00871e-02
vt#branch = 0.000000e+00
xc1.a = 0.000000e+00
xc1.b1 = 0.000000e+00
xc3.a = 1.292532e+00
xc3.b1 = 1.292532e+00
xr1.xsky130_fd_pr__res_xhigh_po_0p69.ra = 7.844239e-01
xr2.xsky130_fd_pr__res_xhigh_po_0p69.ra = 7.844385e-01
xr3.xsky130_fd_pr__res_xhigh_po_0p69.ra = 1.951294e-03
xr4.xsky130_fd_pr__res_xhigh_po_0p69.ra = 7.225334e-01
xr5.xsky130_fd_pr__res_xhigh_po_0p69.ra = 1.951255e-03
xr6.xsky130_fd_pr__res_xhigh_po_0p69.ra = 3.072851e-03
xr7.xsky130_fd_pr__res_xhigh_po_0p69.ra = 1.292532e+00
xr8.xsky130_fd_pr__res_xhigh_po_0p69.ra = 1.196064e+00
xr9.xsky130_fd_pr__res_xhigh_po_0p69.ra = 5.356241e-03
Doing analysis at TEMP = 27.000000 and TNOM = 27.000000


No. of Data Rows : 91
Note: Starting true gmin stepping
Trying gmin =   1.0000E-03 Note: One successful gmin step
Trying gmin =   1.0000E-04 Note: One successful gmin step
Trying gmin =   1.0000E-05 Note: One successful gmin step
Trying gmin =   1.0000E-06 Note: One successful gmin step
Trying gmin =   1.0000E-07 Note: One successful gmin step
Trying gmin =   1.0000E-08 Note: One successful gmin step
Trying gmin =   3.1623E-09 Note: One successful gmin step
Trying gmin =   5.6234E-10 Note: One successful gmin step
Trying gmin =   5.6234E-11 Note: One successful gmin step
Trying gmin =   5.6234E-12 Note: One successful gmin step
Trying gmin =   1.0000E-12 Note: One successful gmin step
Note: True gmin stepping completed
 Reference value :  2.80000e+00Note: Starting true gmin stepping
Trying gmin =   1.0000E-03 Note: One successful gmin step
Trying gmin =   1.0000E-04 Note: One successful gmin step
Trying gmin =   1.0000E-05 Note: One successful gmin step
Trying gmin =   1.0000E-06 Note: One successful gmin step
Trying gmin =   1.0000E-07 Note: One successful gmin step
Trying gmin =   1.0000E-08 Note: One successful gmin step
Trying gmin =   1.0000E-09 Warning: Further gmin increment
Trying gmin =   5.6234E-09 Warning: Further gmin increment
Trying gmin =   8.6596E-09 Note: One successful gmin step
Trying gmin =   6.9783E-09 Note: One successful gmin step
Trying gmin =   5.0481E-09 Note: One successful gmin step
Trying gmin =   3.1059E-09 Warning: Further gmin increment
Trying gmin =   4.4709E-09 Note: One successful gmin step
Trying gmin =   3.7264E-09 Note: One successful gmin step
Trying gmin =   2.8355E-09 Warning: Further gmin increment
Trying gmin =   3.4804E-09 Note: One successful gmin step
Trying gmin =   3.1415E-09 Warning: Further gmin increment
Trying gmin =   3.3924E-09 Note: One successful gmin step
Trying gmin =   3.2645E-09 Note: One successful gmin step
Trying gmin =   3.0817E-09 Warning: Further gmin increment
Trying gmin =   3.2178E-09 Note: One successful gmin step
Trying gmin =   3.1490E-09 Note: One successful gmin step
Trying gmin =   3.0486E-09 Note: One successful gmin step
Trying gmin =   2.9039E-09 Note: One successful gmin step
Trying gmin =   2.6996E-09 Note: One successful gmin step
Trying gmin =   2.4198E-09 Note: One successful gmin step
Trying gmin =   2.0536E-09 Note: One successful gmin step
Trying gmin =   1.6055E-09 Note: One successful gmin step
Trying gmin =   1.1098E-09 Note: One successful gmin step
Trying gmin =   6.3783E-10 Note: One successful gmin step
Trying gmin =   2.7790E-10 Note: One successful gmin step
Trying gmin =   7.9923E-11 Note: One successful gmin step
Trying gmin =   1.2327E-11 Note: One successful gmin step
Trying gmin =   1.2327E-12 Note: One successful gmin step
Trying gmin =   1.0000E-12 Note: One successful gmin step
Note: True gmin stepping completed
 Reference value :  1.20000e+00Note: Starting true gmin stepping
Trying gmin =   1.0000E-03 Note: One successful gmin step
Trying gmin =   1.0000E-04 Note: One successful gmin step
Trying gmin =   1.0000E-05 Note: One successful gmin step
Trying gmin =   1.0000E-06 Note: One successful gmin step
Trying gmin =   1.0000E-07 Note: One successful gmin step
Trying gmin =   1.0000E-08 Warning: Further gmin increment
Trying gmin =   5.6234E-08 Note: One successful gmin step
Trying gmin =   2.3714E-08 Note: One successful gmin step
Trying gmin =   6.4938E-09 Note: One successful gmin step
Trying gmin =   9.3057E-10 Warning: Further gmin increment
Trying gmin =   3.9954E-09 Warning: Further gmin increment
Trying gmin =   5.7513E-09 Note: One successful gmin step
Trying gmin =   4.7936E-09 Note: One successful gmin step
Trying gmin =   3.6476E-09 Note: One successful gmin step
Trying gmin =   2.4212E-09 Note: One successful gmin step
Trying gmin =   1.6071E-09 Note: One successful gmin step
Trying gmin =   8.6913E-10 Note: One successful gmin step
Trying gmin =   3.4565E-10 Note: One successful gmin step
Trying gmin =   8.6688E-11 Note: One successful gmin step
Trying gmin =   1.0888E-11 Note: One successful gmin step
Trying gmin =   1.0888E-12 Note: One successful gmin step
Trying gmin =   1.0000E-12 Note: One successful gmin step
Note: True gmin stepping completed
 Reference value :  5.80000e-01pm                  =  -1.014473e+02
Doing analysis at TEMP = 27.000000 and TNOM = 27.000000


No. of Data Rows : 91
psrr100             =  -7.669464e+01
psrr100k            =  -2.612065e+01
Doing analysis at TEMP = 27.000000 and TNOM = 27.000000


No. of Data Rows : 86
temp_coeff = 1.450577e+02
Doing analysis at TEMP = 27.000000 and TNOM = 27.000000


No. of Data Rows : 141
vldo_sup_2          =  -1.537704e+01
vldo_sup_2_8        =  -1.533425e+01
line_reg = 5.348750e-02
Error(parse.c--checkvalid): vin: zero length vector.
Error: RHS "vin-1.764" invalid
Error(parse.c--checkvalid): dropout: zero length vector.
Error: no such vector dropout
Note: No ".plot", ".print", or ".fourier" lines; no simulations run

Error: measure  vin  (WHEN) : out of interval
 meas dc vin when v(ldo_out)=1.764 failed!

