 Reference value :  0.00000e+00
No compatibility mode selected!


Circuit: * ldo netlist 

Doing analysis at TEMP = 85.000000 and TNOM = 27.000000


No. of Data Rows : 1
bg_out = 1.199854e+00
inn = 1.146428e+00
inp = 1.146374e+00
l1#branch = 0.000000e+00
ldo_out = 1.805368e+00
m.xm1.msky130_fd_pr__nfet_g5v0d10v5#body = 2.593893e-11
m.xm1.msky130_fd_pr__nfet_g5v0d10v5#dbody = 4.731886e-11
m.xm1.msky130_fd_pr__nfet_g5v0d10v5#sbody = 3.049794e-11
m.xm2.msky130_fd_pr__pfet_g5v0d10v5#body = 2.100000e+00
m.xm2.msky130_fd_pr__pfet_g5v0d10v5#dbody = 2.100000e+00
m.xm2.msky130_fd_pr__pfet_g5v0d10v5#sbody = 2.100000e+00
m.xm3.msky130_fd_pr__pfet_g5v0d10v5#body = 2.100000e+00
m.xm3.msky130_fd_pr__pfet_g5v0d10v5#dbody = 2.100000e+00
m.xm3.msky130_fd_pr__pfet_g5v0d10v5#sbody = 2.100000e+00
m.xm4.msky130_fd_pr__pfet_g5v0d10v5#body = 2.100000e+00
m.xm4.msky130_fd_pr__pfet_g5v0d10v5#dbody = 2.100000e+00
m.xm4.msky130_fd_pr__pfet_g5v0d10v5#sbody = 2.100000e+00
m.xm5.msky130_fd_pr__pfet_g5v0d10v5#body = 2.100000e+00
m.xm5.msky130_fd_pr__pfet_g5v0d10v5#dbody = 2.100000e+00
m.xm5.msky130_fd_pr__pfet_g5v0d10v5#sbody = 2.100000e+00
m.xm6.msky130_fd_pr__nfet_g5v0d10v5#body = 1.979748e-11
m.xm6.msky130_fd_pr__nfet_g5v0d10v5#dbody = 4.949359e-11
m.xm6.msky130_fd_pr__nfet_g5v0d10v5#sbody = 9.898854e-12
m.xm7.msky130_fd_pr__pfet_g5v0d10v5#body = 2.100000e+00
m.xm7.msky130_fd_pr__pfet_g5v0d10v5#dbody = 2.100000e+00
m.xm7.msky130_fd_pr__pfet_g5v0d10v5#sbody = 2.100000e+00
m.xm8.msky130_fd_pr__pfet_g5v0d10v5#body = 2.100000e+00
m.xm8.msky130_fd_pr__pfet_g5v0d10v5#dbody = 2.100000e+00
m.xm8.msky130_fd_pr__pfet_g5v0d10v5#sbody = 2.100000e+00
m.xm9.msky130_fd_pr__nfet_g5v0d10v5#body = 2.413834e-11
m.xm9.msky130_fd_pr__nfet_g5v0d10v5#dbody = 4.556346e-11
m.xm9.msky130_fd_pr__nfet_g5v0d10v5#sbody = 2.685157e-11
m.xm10.msky130_fd_pr__nfet_g5v0d10v5#body = 2.390589e-11
m.xm10.msky130_fd_pr__nfet_g5v0d10v5#dbody = 4.498233e-11
m.xm10.msky130_fd_pr__nfet_g5v0d10v5#sbody = 2.673535e-11
m.xm11.msky130_fd_pr__pfet_g5v0d10v5#body = 2.100000e+00
m.xm11.msky130_fd_pr__pfet_g5v0d10v5#dbody = 2.100000e+00
m.xm11.msky130_fd_pr__pfet_g5v0d10v5#sbody = 2.100000e+00
m.xm12.msky130_fd_pr__pfet_g5v0d10v5#body = 2.100000e+00
m.xm12.msky130_fd_pr__pfet_g5v0d10v5#dbody = 2.100000e+00
m.xm12.msky130_fd_pr__pfet_g5v0d10v5#sbody = 2.100000e+00
m.xm13.msky130_fd_pr__nfet_g5v0d10v5#body = 5.743648e-12
m.xm13.msky130_fd_pr__nfet_g5v0d10v5#dbody = 1.435905e-11
m.xm13.msky130_fd_pr__nfet_g5v0d10v5#sbody = 2.871892e-12
m.xm14.msky130_fd_pr__pfet_g5v0d10v5#body = 2.100000e+00
m.xm14.msky130_fd_pr__pfet_g5v0d10v5#dbody = 2.100000e+00
m.xm14.msky130_fd_pr__pfet_g5v0d10v5#sbody = 2.100000e+00
m.xm15.msky130_fd_pr__nfet_g5v0d10v5#body = 2.168377e-15
m.xm15.msky130_fd_pr__nfet_g5v0d10v5#dbody = 5.420809e-15
m.xm15.msky130_fd_pr__nfet_g5v0d10v5#sbody = 1.084322e-15
m.xm16.msky130_fd_pr__nfet_g5v0d10v5#body = 5.113482e-11
m.xm16.msky130_fd_pr__nfet_g5v0d10v5#dbody = 8.862187e-11
m.xm16.msky130_fd_pr__nfet_g5v0d10v5#sbody = 6.478257e-11
m.xm17.msky130_fd_pr__pfet_g5v0d10v5#body = 2.100000e+00
m.xm17.msky130_fd_pr__pfet_g5v0d10v5#dbody = 2.100000e+00
m.xm17.msky130_fd_pr__pfet_g5v0d10v5#sbody = 2.100000e+00
m.xm18.msky130_fd_pr__nfet_g5v0d10v5#body = 1.987517e-11
m.xm18.msky130_fd_pr__nfet_g5v0d10v5#dbody = 4.968512e-11
m.xm18.msky130_fd_pr__nfet_g5v0d10v5#sbody = 9.937664e-12
m.xm19.msky130_fd_pr__nfet_g5v0d10v5#body = 2.600310e-11
m.xm19.msky130_fd_pr__nfet_g5v0d10v5#dbody = 4.747928e-11
m.xm19.msky130_fd_pr__nfet_g5v0d10v5#sbody = 3.053003e-11
m.xm20.msky130_fd_pr__nfet_g5v0d10v5#body = 1.347442e-11
m.xm20.msky130_fd_pr__nfet_g5v0d10v5#dbody = 3.368597e-11
m.xm20.msky130_fd_pr__nfet_g5v0d10v5#sbody = 6.737284e-12
m.xm22.msky130_fd_pr__nfet_g5v0d10v5#body = 1.205909e-11
m.xm22.msky130_fd_pr__nfet_g5v0d10v5#dbody = 3.014762e-11
m.xm22.msky130_fd_pr__nfet_g5v0d10v5#sbody = 6.029654e-12
m.xm24.msky130_fd_pr__pfet_g5v0d10v5#body = 2.100000e+00
m.xm24.msky130_fd_pr__pfet_g5v0d10v5#dbody = 2.100000e+00
m.xm24.msky130_fd_pr__pfet_g5v0d10v5#sbody = 2.100000e+00
m.xm26.msky130_fd_pr__pfet_g5v0d10v5#body = 2.100000e+00
m.xm26.msky130_fd_pr__pfet_g5v0d10v5#dbody = 2.100000e+00
m.xm26.msky130_fd_pr__pfet_g5v0d10v5#sbody = 2.100000e+00
mir = 9.517971e-01
net1 = 6.298154e-01
net2 = 4.185118e-06
net3 = 7.033686e-01
net4 = 2.790559e-01
net5 = 9.569305e-01
net6 = 8.979718e-01
net7 = 7.033134e-01
net8 = 1.030819e+00
net9 = 1.049415e+00
net10 = 3.009733e-01
net11 = 1.431367e+00
net12 = 1.431367e+00
net13 = 0.000000e+00
out = 1.431367e+00
pos = 1.200097e+00
q.xq2.qsky130_fd_pr__pnp_05v5_w0p68l0p68#collcx = 2.964014e-03
q.xq3.qsky130_fd_pr__pnp_05v5_w0p68l0p68#collcx = 3.741018e-04
q.xq4.qsky130_fd_pr__pnp_05v5_w0p68l0p68#collcx = 3.741018e-04
q.xq8.qsky130_fd_pr__pnp_05v5_w0p68l0p68#collcx = 3.741018e-04
q.xq10.qsky130_fd_pr__pnp_05v5_w0p68l0p68#collcx = 3.741018e-04
q.xq12.qsky130_fd_pr__pnp_05v5_w0p68l0p68#collcx = 3.741018e-04
q.xq14.qsky130_fd_pr__pnp_05v5_w0p68l0p68#collcx = 3.741018e-04
q.xq16.qsky130_fd_pr__pnp_05v5_w0p68l0p68#collcx = 3.741018e-04
q.xq18.qsky130_fd_pr__pnp_05v5_w0p68l0p68#collcx = 3.741018e-04
vb = 9.194160e-01
vdd = 2.100000e+00
vs#branch = -1.88105e-04
vt#branch = 0.000000e+00
xc1.a = 0.000000e+00
xc1.b1 = 0.000000e+00
xc3.a = 1.431367e+00
xc3.b1 = 1.431367e+00
xr1.xsky130_fd_pr__res_xhigh_po_0p69.ra = 7.091286e-01
xr2.xsky130_fd_pr__res_xhigh_po_0p69.ra = 7.091838e-01
xr3.xsky130_fd_pr__res_xhigh_po_0p69.ra = 3.468013e-03
xr4.xsky130_fd_pr__res_xhigh_po_0p69.ra = 6.321951e-01
xr5.xsky130_fd_pr__res_xhigh_po_0p69.ra = 3.467724e-03
xr6.xsky130_fd_pr__res_xhigh_po_0p69.ra = 6.157877e-03
xr7.xsky130_fd_pr__res_xhigh_po_0p69.ra = 1.431367e+00
xr8.xsky130_fd_pr__res_xhigh_po_0p69.ra = 1.210334e+00
xr9.xsky130_fd_pr__res_xhigh_po_0p69.ra = 1.073734e-02
Doing analysis at TEMP = 85.000000 and TNOM = 27.000000


No. of Data Rows : 91
Note: Starting true gmin stepping
Trying gmin =   1.0000E-03 Note: One successful gmin step
Trying gmin =   1.0000E-04 Note: One successful gmin step
Trying gmin =   1.0000E-05 Note: One successful gmin step
Trying gmin =   1.0000E-06 Note: One successful gmin step
Trying gmin =   1.0000E-07 Note: One successful gmin step
Trying gmin =   1.0000E-08 Error: -5.38798e+160, 2 out of range for ^
Warning: Further gmin increment
Trying gmin =   5.6234E-08 Warning: Further gmin increment
Trying gmin =   8.6596E-08 Note: One successful gmin step
Trying gmin =   6.9783E-08 Warning: Further gmin increment
Trying gmin =   8.2047E-08 Note: One successful gmin step
Trying gmin =   7.5667E-08 Note: One successful gmin step
Trying gmin =   6.7015E-08 Warning: Further gmin increment
Trying gmin =   7.3404E-08 Note: One successful gmin step
Trying gmin =   7.0137E-08 Warning: Further gmin increment
Trying gmin =   7.2574E-08 Note: One successful gmin step
Trying gmin =   7.1345E-08 Warning: Further gmin increment
Trying gmin =   7.2264E-08 Note: One successful gmin step
Trying gmin =   7.1803E-08 Warning: Further gmin increment
Trying gmin =   7.2149E-08 Warning: Further gmin increment
Trying gmin =   7.2236E-08 Note: One successful gmin step
Trying gmin =   7.2192E-08 Note: One successful gmin step
Trying gmin =   7.2127E-08 Warning: Further gmin increment
Trying gmin =   7.2176E-08 Warning: Further gmin increment
Trying gmin =   7.2188E-08 Warning: Further gmin increment
Trying gmin =   7.2191E-08 Warning: Last gmin step failed
Warning: True gmin stepping failed
Note: Starting dynamic gmin stepping
Trying gmin =   1.0000E-03 Note: One successful gmin step
Trying gmin =   1.0000E-04 Note: One successful gmin step
Trying gmin =   1.0000E-05 Warning: Further gmin increment
Trying gmin =   5.6234E-05 Note: One successful gmin step
Trying gmin =   2.3714E-05 Note: One successful gmin step
Trying gmin =   6.4938E-06 Warning: Further gmin increment
Trying gmin =   1.7154E-05 Note: One successful gmin step
Trying gmin =   1.0554E-05 Warning: Further gmin increment
Trying gmin =   1.5193E-05 Note: One successful gmin step
Trying gmin =   1.2663E-05 Warning: Further gmin increment
Trying gmin =   1.4517E-05 Note: One successful gmin step
Trying gmin =   1.3558E-05 Note: One successful gmin step
Trying gmin =   1.2238E-05 Note: One successful gmin step
Trying gmin =   1.0495E-05 Note: One successful gmin step
Trying gmin =   8.3340E-06 Note: One successful gmin step
Trying gmin =   5.8977E-06 Note: One successful gmin step
Trying gmin =   3.5110E-06 Note: One successful gmin step
Trying gmin =   1.6127E-06 Note: One successful gmin step
Trying gmin =   5.0203E-07 Note: One successful gmin step
Trying gmin =   8.7195E-08 Warning: Further gmin increment
Trying gmin =   3.2409E-07 Warning: Further gmin increment
Trying gmin =   4.5000E-07 Note: One successful gmin step
Trying gmin =   3.8189E-07 Note: One successful gmin step
Trying gmin =   2.9856E-07 Warning: Further gmin increment
Trying gmin =   3.5910E-07 Note: One successful gmin step
Trying gmin =   3.2743E-07 Warning: Further gmin increment
Trying gmin =   3.5091E-07 Note: One successful gmin step
Trying gmin =   3.3897E-07 Note: One successful gmin step
Trying gmin =   3.2181E-07 Warning: Further gmin increment
Trying gmin =   3.3459E-07 Warning: Further gmin increment
Trying gmin =   3.3787E-07 Note: One successful gmin step
Trying gmin =   3.3623E-07 Note: One successful gmin step
Trying gmin =   3.3378E-07 Warning: Further gmin increment
Trying gmin =   3.3561E-07 Note: One successful gmin step
Trying gmin =   3.3470E-07 Warning: Further gmin increment
Trying gmin =   3.3538E-07 Note: One successful gmin step
Trying gmin =   3.3504E-07 Note: One successful gmin step
Trying gmin =   3.3452E-07 Warning: Further gmin increment
Trying gmin =   3.3491E-07 Note: One successful gmin step
Trying gmin =   3.3472E-07 Warning: Further gmin increment
Trying gmin =   3.3486E-07 Note: One successful gmin step
Trying gmin =   3.3479E-07 Note: One successful gmin step
Trying gmin =   3.3468E-07 Warning: Further gmin increment
Trying gmin =   3.3476E-07 Note: One successful gmin step
Trying gmin =   3.3472E-07 Warning: Further gmin increment
Trying gmin =   3.3475E-07 Note: One successful gmin step
Trying gmin =   3.3474E-07 Warning: Last gmin step failed
Warning: Dynamic gmin stepping failed
Note: Starting source stepping
Supplies reduced to   0.0000% Note: One successful source step
Supplies reduced to   0.1000% Note: One successful source step
Supplies reduced to   0.2000% Note: One successful source step
Supplies reduced to   0.3500% Note: One successful source step
Supplies reduced to   0.5750% Note: One successful source step
Supplies reduced to   0.9125% Note: One successful source step
Supplies reduced to   1.4188% Note: One successful source step
Supplies reduced to   2.1781% Note: One successful source step
Supplies reduced to   3.3172% Note: One successful source step
Supplies reduced to   5.0258% Note: One successful source step
Supplies reduced to   7.5887% Note: One successful source step
Supplies reduced to  11.4330% Note: One successful source step
Supplies reduced to  17.1995% Note: One successful source step
Supplies reduced to  25.8493% Supplies reduced to  17.1995% Note: One successful source step
Supplies reduced to  18.1995% Note: One successful source step
Supplies reduced to  19.6995% Note: One successful source step
Supplies reduced to  21.9495% Note: One successful source step
Supplies reduced to  25.3245% Supplies reduced to  21.9495% Note: One successful source step
Supplies reduced to  22.4558% Note: One successful source step
Supplies reduced to  23.2151% Note: One successful source step
Supplies reduced to  24.3542% Note: One successful source step
Supplies reduced to  26.0628% Note: One successful source step
Supplies reduced to  28.6257% Note: One successful source step
Supplies reduced to  32.4700% Note: One successful source step
Supplies reduced to  38.2365% Note: One successful source step
Supplies reduced to  46.8863% Note: One successful source step
Supplies reduced to  59.8609% Note: One successful source step
Supplies reduced to  79.3229% Supplies reduced to  59.8609% Note: One successful source step
Supplies reduced to  60.8609% Note: One successful source step
Supplies reduced to  62.3609% Note: One successful source step
Supplies reduced to  64.6109% Note: One successful source step
Supplies reduced to  67.9859% Supplies reduced to  64.6109% Note: One successful source step
Supplies reduced to  65.1172% Note: One successful source step
Supplies reduced to  65.8765% Supplies reduced to  65.1172% Note: One successful source step
Supplies reduced to  65.2311% Supplies reduced to  65.1172% Note: One successful source step
Supplies reduced to  65.1342% Note: One successful source step
Supplies reduced to  65.1599% Supplies reduced to  65.1342% Note: One successful source step
Supplies reduced to  65.1381% Note: One successful source step
Supplies reduced to  65.1439% Supplies reduced to  65.1381% Note: One successful source step
Supplies reduced to  65.1390% Note: One successful source step
Supplies reduced to  65.1403% Note: One successful source step
Supplies reduced to  65.1422% Note: One successful source step
Supplies reduced to  65.1451% Supplies reduced to  65.1422% Note: One successful source step
Supplies reduced to  65.1426% Note: One successful source step
Supplies reduced to  65.1433% Note: One successful source step
Supplies reduced to  65.1443% Supplies reduced to  65.1433% Note: One successful source step
Supplies reduced to  65.1434% Note: One successful source step
Supplies reduced to  65.1437% Note: One successful source step
Supplies reduced to  65.1440% Supplies reduced to  65.1437% Note: One successful source step
Supplies reduced to  65.1437% Note: One successful source step
Supplies reduced to  65.1438% Supplies reduced to  65.1437% Note: One successful source step
Supplies reduced to  65.1437% Note: One successful source step
Supplies reduced to  65.1437% Note: One successful source step
Supplies reduced to  65.1438% Warning: source stepping failed
doAnalyses: Too many iterations without convergence

dc simulation(s) aborted
Error(parse.c--checkvalid): vldo_sup_2_8: zero length vector.
Error: RHS "abs((vldo_sup_2_8-vldo_sup_2)/0.8)" invalid
Error(parse.c--checkvalid): line_reg: zero length vector.
Error(parse.c--checkvalid): vin: zero length vector.
Error: RHS "vin-1.764" invalid
Error(parse.c--checkvalid): dropout: zero length vector.
Error: no such vector dropout
Note: No ".plot", ".print", or ".fourier" lines; no simulations run
pm                  =  5.933381e+01
Doing analysis at TEMP = 85.000000 and TNOM = 27.000000


No. of Data Rows : 91
psrr100             =  -4.717820e+01
psrr100k            =  -2.554442e+01
Doing analysis at TEMP = 85.000000 and TNOM = 27.000000


No. of Data Rows : 86
temp_coeff = 1.223114e+02
Doing analysis at TEMP = 85.000000 and TNOM = 27.000000


Error: measure  vldo_sup_2  (AT) : out of interval
 meas dc vldo_sup_2 find ldo_out at=2 failed!


Error: measure  vldo_sup_2_8  (AT) : out of interval
 meas dc vldo_sup_2_8 find ldo_out at=2.8 failed!


Error: measure  vin  (WHEN) : out of interval
 meas dc vin when v(ldo_out)=1.764 failed!

