 Reference value :  0.00000e+00
No compatibility mode selected!


Circuit: * ldo netlist 

Doing analysis at TEMP = 0.000000 and TNOM = 27.000000


No. of Data Rows : 1
bg_out = 6.102540e-01
inn = 8.257560e-01
inp = 8.254271e-01
l1#branch = 0.000000e+00
ldo_out = 9.215157e-01
m.xm1.msky130_fd_pr__nfet_g5v0d10v5#body = 1.104266e-11
m.xm1.msky130_fd_pr__nfet_g5v0d10v5#dbody = 2.617125e-11
m.xm1.msky130_fd_pr__nfet_g5v0d10v5#sbody = 6.956725e-12
m.xm2.msky130_fd_pr__pfet_g5v0d10v5#body = 2.100000e+00
m.xm2.msky130_fd_pr__pfet_g5v0d10v5#dbody = 2.100000e+00
m.xm2.msky130_fd_pr__pfet_g5v0d10v5#sbody = 2.100000e+00
m.xm3.msky130_fd_pr__pfet_g5v0d10v5#body = 2.100000e+00
m.xm3.msky130_fd_pr__pfet_g5v0d10v5#dbody = 2.100000e+00
m.xm3.msky130_fd_pr__pfet_g5v0d10v5#sbody = 2.100000e+00
m.xm4.msky130_fd_pr__pfet_g5v0d10v5#body = 2.100000e+00
m.xm4.msky130_fd_pr__pfet_g5v0d10v5#dbody = 2.100000e+00
m.xm4.msky130_fd_pr__pfet_g5v0d10v5#sbody = 2.100000e+00
m.xm5.msky130_fd_pr__pfet_g5v0d10v5#body = 2.100000e+00
m.xm5.msky130_fd_pr__pfet_g5v0d10v5#dbody = 2.100000e+00
m.xm5.msky130_fd_pr__pfet_g5v0d10v5#sbody = 2.100000e+00
m.xm6.msky130_fd_pr__nfet_g5v0d10v5#body = 1.078340e-11
m.xm6.msky130_fd_pr__nfet_g5v0d10v5#dbody = 2.695850e-11
m.xm6.msky130_fd_pr__nfet_g5v0d10v5#sbody = 5.391704e-12
m.xm7.msky130_fd_pr__pfet_g5v0d10v5#body = 2.100000e+00
m.xm7.msky130_fd_pr__pfet_g5v0d10v5#dbody = 2.100000e+00
m.xm7.msky130_fd_pr__pfet_g5v0d10v5#sbody = 2.100000e+00
m.xm8.msky130_fd_pr__pfet_g5v0d10v5#body = 2.100000e+00
m.xm8.msky130_fd_pr__pfet_g5v0d10v5#dbody = 2.100000e+00
m.xm8.msky130_fd_pr__pfet_g5v0d10v5#sbody = 2.100000e+00
m.xm9.msky130_fd_pr__nfet_g5v0d10v5#body = 1.341519e-11
m.xm9.msky130_fd_pr__nfet_g5v0d10v5#dbody = 3.347849e-11
m.xm9.msky130_fd_pr__nfet_g5v0d10v5#sbody = 6.767093e-12
m.xm10.msky130_fd_pr__nfet_g5v0d10v5#body = 1.110324e-11
m.xm10.msky130_fd_pr__nfet_g5v0d10v5#dbody = 2.769859e-11
m.xm10.msky130_fd_pr__nfet_g5v0d10v5#sbody = 5.611113e-12
m.xm11.msky130_fd_pr__pfet_g5v0d10v5#body = 2.100000e+00
m.xm11.msky130_fd_pr__pfet_g5v0d10v5#dbody = 2.100000e+00
m.xm11.msky130_fd_pr__pfet_g5v0d10v5#sbody = 2.100000e+00
m.xm12.msky130_fd_pr__pfet_g5v0d10v5#body = 2.100000e+00
m.xm12.msky130_fd_pr__pfet_g5v0d10v5#dbody = 2.100000e+00
m.xm12.msky130_fd_pr__pfet_g5v0d10v5#sbody = 2.100000e+00
m.xm13.msky130_fd_pr__nfet_g5v0d10v5#body = 2.974591e-14
m.xm13.msky130_fd_pr__nfet_g5v0d10v5#dbody = 7.436458e-14
m.xm13.msky130_fd_pr__nfet_g5v0d10v5#sbody = 1.487314e-14
m.xm14.msky130_fd_pr__pfet_g5v0d10v5#body = 2.100000e+00
m.xm14.msky130_fd_pr__pfet_g5v0d10v5#dbody = 2.100000e+00
m.xm14.msky130_fd_pr__pfet_g5v0d10v5#sbody = 2.100000e+00
m.xm15.msky130_fd_pr__nfet_g5v0d10v5#body = 1.812387e-13
m.xm15.msky130_fd_pr__nfet_g5v0d10v5#dbody = 4.530968e-13
m.xm15.msky130_fd_pr__nfet_g5v0d10v5#sbody = 9.061942e-14
m.xm16.msky130_fd_pr__nfet_g5v0d10v5#body = 3.657207e-11
m.xm16.msky130_fd_pr__nfet_g5v0d10v5#dbody = 7.078615e-11
m.xm16.msky130_fd_pr__nfet_g5v0d10v5#sbody = 3.893005e-11
m.xm17.msky130_fd_pr__pfet_g5v0d10v5#body = 2.100000e+00
m.xm17.msky130_fd_pr__pfet_g5v0d10v5#dbody = 2.100000e+00
m.xm17.msky130_fd_pr__pfet_g5v0d10v5#sbody = 2.100000e+00
m.xm18.msky130_fd_pr__nfet_g5v0d10v5#body = 8.258681e-12
m.xm18.msky130_fd_pr__nfet_g5v0d10v5#dbody = 2.064670e-11
m.xm18.msky130_fd_pr__nfet_g5v0d10v5#sbody = 4.129347e-12
m.xm19.msky130_fd_pr__nfet_g5v0d10v5#body = 1.152777e-11
m.xm19.msky130_fd_pr__nfet_g5v0d10v5#dbody = 2.738404e-11
m.xm19.msky130_fd_pr__nfet_g5v0d10v5#sbody = 7.199282e-12
m.xm20.msky130_fd_pr__nfet_g5v0d10v5#body = 1.073322e-11
m.xm20.msky130_fd_pr__nfet_g5v0d10v5#dbody = 2.683305e-11
m.xm20.msky130_fd_pr__nfet_g5v0d10v5#sbody = 5.366617e-12
m.xm22.msky130_fd_pr__nfet_g5v0d10v5#body = 7.177305e-13
m.xm22.msky130_fd_pr__nfet_g5v0d10v5#dbody = 1.794325e-12
m.xm22.msky130_fd_pr__nfet_g5v0d10v5#sbody = 3.588668e-13
m.xm24.msky130_fd_pr__pfet_g5v0d10v5#body = 2.100000e+00
m.xm24.msky130_fd_pr__pfet_g5v0d10v5#dbody = 2.100000e+00
m.xm24.msky130_fd_pr__pfet_g5v0d10v5#sbody = 2.100000e+00
m.xm26.msky130_fd_pr__pfet_g5v0d10v5#body = 2.100000e+00
m.xm26.msky130_fd_pr__pfet_g5v0d10v5#dbody = 2.100000e+00
m.xm26.msky130_fd_pr__pfet_g5v0d10v5#sbody = 2.100000e+00
mir = 8.259922e-01
net1 = 6.030359e-01
net2 = 1.449256e-02
net3 = 6.034267e-01
net4 = 5.741159e-02
net5 = 8.648013e-01
net6 = 8.626645e-01
net7 = 6.030938e-01
net8 = 8.858758e-01
net9 = 1.070833e+00
net10 = 2.379516e-03
net11 = 6.606927e-01
net12 = 6.606927e-01
net13 = 0.000000e+00
out = 6.606927e-01
pos = 6.125523e-01
q.xq2.qsky130_fd_pr__pnp_05v5_w0p68l0p68#collcx = 2.535826e-07
q.xq3.qsky130_fd_pr__pnp_05v5_w0p68l0p68#collcx = 2.495432e-07
q.xq4.qsky130_fd_pr__pnp_05v5_w0p68l0p68#collcx = 2.495432e-07
q.xq8.qsky130_fd_pr__pnp_05v5_w0p68l0p68#collcx = 2.495432e-07
q.xq10.qsky130_fd_pr__pnp_05v5_w0p68l0p68#collcx = 2.495432e-07
q.xq12.qsky130_fd_pr__pnp_05v5_w0p68l0p68#collcx = 2.495432e-07
q.xq14.qsky130_fd_pr__pnp_05v5_w0p68l0p68#collcx = 2.495432e-07
q.xq16.qsky130_fd_pr__pnp_05v5_w0p68l0p68#collcx = 2.495432e-07
q.xq18.qsky130_fd_pr__pnp_05v5_w0p68l0p68#collcx = 2.495432e-07
vb = 8.586559e-01
vdd = 2.100000e+00
vs#branch = -5.12514e-02
vt#branch = 0.000000e+00
xc1.a = 0.000000e+00
xc1.b1 = 0.000000e+00
xc3.a = 6.606927e-01
xc3.b1 = 6.606927e-01
xr1.xsky130_fd_pr__res_xhigh_po_0p69.ra = 6.044854e-01
xr2.xsky130_fd_pr__res_xhigh_po_0p69.ra = 6.048183e-01
xr3.xsky130_fd_pr__res_xhigh_po_0p69.ra = 1.425403e-03
xr4.xsky130_fd_pr__res_xhigh_po_0p69.ra = 6.030368e-01
xr5.xsky130_fd_pr__res_xhigh_po_0p69.ra = 1.424579e-03
xr6.xsky130_fd_pr__res_xhigh_po_0p69.ra = 1.442319e-03
xr7.xsky130_fd_pr__res_xhigh_po_0p69.ra = 6.606927e-01
xr8.xsky130_fd_pr__res_xhigh_po_0p69.ra = 6.150242e-01
xr9.xsky130_fd_pr__res_xhigh_po_0p69.ra = 2.524126e-03
Doing analysis at TEMP = 0.000000 and TNOM = 27.000000


No. of Data Rows : 91
 Reference value :  1.46000e+00Note: Starting true gmin stepping
Trying gmin =   1.0000E-03 Note: One successful gmin step
Trying gmin =   1.0000E-04 Note: One successful gmin step
Trying gmin =   1.0000E-05 Note: One successful gmin step
Trying gmin =   1.0000E-06 Note: One successful gmin step
Trying gmin =   1.0000E-07 Note: One successful gmin step
Trying gmin =   1.0000E-08 Note: One successful gmin step
Trying gmin =   1.0000E-09 Note: One successful gmin step
Trying gmin =   1.0000E-10 Note: One successful gmin step
Trying gmin =   1.0000E-11 Note: One successful gmin step
Trying gmin =   1.0000E-12 Note: One successful gmin step
Trying gmin =   1.0000E-12 Note: One successful gmin step
Note: True gmin stepping completed
Note: Starting true gmin stepping
Trying gmin =   1.0000E-03 Note: One successful gmin step
Trying gmin =   1.0000E-04 Note: One successful gmin step
Trying gmin =   1.0000E-05 Note: One successful gmin step
Trying gmin =   1.0000E-06 Note: One successful gmin step
Trying gmin =   1.0000E-07 Note: One successful gmin step
Trying gmin =   1.0000E-08 Note: One successful gmin step
Trying gmin =   1.0000E-09 Note: One successful gmin step
Trying gmin =   1.0000E-10 Note: One successful gmin step
Trying gmin =   1.0000E-11 Note: One successful gmin step
Trying gmin =   1.0000E-12 Note: One successful gmin step
Trying gmin =   1.0000E-12 Note: One successful gmin step
Note: True gmin stepping completed
 Reference value :  7.00000e-01Note: Starting true gmin stepping
Trying gmin =   1.0000E-03 Note: One successful gmin step
Trying gmin =   1.0000E-04 Note: One successful gmin step
Trying gmin =   1.0000E-05 Note: One successful gmin step
Trying gmin =   1.0000E-06 Note: One successful gmin step
Trying gmin =   1.0000E-07 Note: One successful gmin step
Trying gmin =   1.0000E-08 Note: One successful gmin step
Trying gmin =   1.0000E-09 Note: One successful gmin step
Trying gmin =   1.0000E-10 Note: One successful gmin step
Trying gmin =   1.0000E-11 Note: One successful gmin step
Trying gmin =   1.0000E-12 Warning: Further gmin increment
Trying gmin =   5.6234E-12 Note: One successful gmin step
Trying gmin =   2.3714E-12 Note: One successful gmin step
Trying gmin =   1.0000E-12 Warning: Further gmin increment
Trying gmin =   1.9110E-12 Note: One successful gmin step
Trying gmin =   1.3824E-12 Note: One successful gmin step
Trying gmin =   1.0000E-12 Warning: Further gmin increment
Trying gmin =   1.2749E-12 Note: One successful gmin step
Trying gmin =   1.1291E-12 Note: One successful gmin step
Trying gmin =   1.0000E-12 Note: One successful gmin step
Warning: True gmin stepping failed
Note: Starting dynamic gmin stepping
Trying gmin =   1.0000E-03 Note: One successful gmin step
Trying gmin =   1.0000E-04 Note: One successful gmin step
Trying gmin =   1.0000E-05 Note: One successful gmin step
Trying gmin =   1.0000E-06 Note: One successful gmin step
Trying gmin =   1.0000E-07 Note: One successful gmin step
Trying gmin =   1.0000E-08 Note: One successful gmin step
Trying gmin =   1.0000E-09 Note: One successful gmin step
Trying gmin =   1.0000E-10 Note: One successful gmin step
Trying gmin =   1.0000E-11 Note: One successful gmin step
Trying gmin =   1.0000E-12 Note: One successful gmin step
Trying gmin =   1.0000E-12 Note: One successful gmin step
Note: Dynamic gmin stepping completed
 Reference value :  4.00000e-02pm                  =  9.105529e+01
Doing analysis at TEMP = 0.000000 and TNOM = 27.000000


No. of Data Rows : 91
psrr100             =  -3.110849e+01
psrr100k            =  -6.837030e+00
Doing analysis at TEMP = 0.000000 and TNOM = 27.000000


No. of Data Rows : 86
temp_coeff = 1.591538e+02
Doing analysis at TEMP = 0.000000 and TNOM = 27.000000


No. of Data Rows : 141
vldo_sup_2          =  9.245696e-01
vldo_sup_2_8        =  9.088555e-01
line_reg = 1.964263e-02
Error(parse.c--checkvalid): vin: zero length vector.
Error: RHS "vin-1.764" invalid
Error(parse.c--checkvalid): dropout: zero length vector.
Error: no such vector dropout
Note: No ".plot", ".print", or ".fourier" lines; no simulations run

Error: measure  vin  (WHEN) : out of interval
 meas dc vin when v(ldo_out)=1.764 failed!

