 Reference value :  0.00000e+00
No compatibility mode selected!


Circuit: * ldo netlist 

Doing analysis at TEMP = 85.000000 and TNOM = 27.000000


No. of Data Rows : 1
bg_out = 1.206858e+00
inn = 1.157685e+00
inp = 1.157619e+00
l1#branch = 0.000000e+00
ldo_out = 1.816333e+00
m.xm1.msky130_fd_pr__nfet_g5v0d10v5#body = 2.710598e-11
m.xm1.msky130_fd_pr__nfet_g5v0d10v5#dbody = 5.091767e-11
m.xm1.msky130_fd_pr__nfet_g5v0d10v5#sbody = 3.040028e-11
m.xm2.msky130_fd_pr__pfet_g5v0d10v5#body = 2.300000e+00
m.xm2.msky130_fd_pr__pfet_g5v0d10v5#dbody = 2.300000e+00
m.xm2.msky130_fd_pr__pfet_g5v0d10v5#sbody = 2.300000e+00
m.xm3.msky130_fd_pr__pfet_g5v0d10v5#body = 2.300000e+00
m.xm3.msky130_fd_pr__pfet_g5v0d10v5#dbody = 2.300000e+00
m.xm3.msky130_fd_pr__pfet_g5v0d10v5#sbody = 2.300000e+00
m.xm4.msky130_fd_pr__pfet_g5v0d10v5#body = 2.300000e+00
m.xm4.msky130_fd_pr__pfet_g5v0d10v5#dbody = 2.300000e+00
m.xm4.msky130_fd_pr__pfet_g5v0d10v5#sbody = 2.300000e+00
m.xm5.msky130_fd_pr__pfet_g5v0d10v5#body = 2.300000e+00
m.xm5.msky130_fd_pr__pfet_g5v0d10v5#dbody = 2.300000e+00
m.xm5.msky130_fd_pr__pfet_g5v0d10v5#sbody = 2.300000e+00
m.xm6.msky130_fd_pr__nfet_g5v0d10v5#body = 2.037515e-11
m.xm6.msky130_fd_pr__nfet_g5v0d10v5#dbody = 5.093776e-11
m.xm6.msky130_fd_pr__nfet_g5v0d10v5#sbody = 1.018769e-11
m.xm7.msky130_fd_pr__pfet_g5v0d10v5#body = 2.300000e+00
m.xm7.msky130_fd_pr__pfet_g5v0d10v5#dbody = 2.300000e+00
m.xm7.msky130_fd_pr__pfet_g5v0d10v5#sbody = 2.300000e+00
m.xm8.msky130_fd_pr__pfet_g5v0d10v5#body = 2.300000e+00
m.xm8.msky130_fd_pr__pfet_g5v0d10v5#dbody = 2.300000e+00
m.xm8.msky130_fd_pr__pfet_g5v0d10v5#sbody = 2.300000e+00
m.xm9.msky130_fd_pr__nfet_g5v0d10v5#body = 2.535400e-11
m.xm9.msky130_fd_pr__nfet_g5v0d10v5#dbody = 4.941911e-11
m.xm9.msky130_fd_pr__nfet_g5v0d10v5#sbody = 2.664288e-11
m.xm10.msky130_fd_pr__nfet_g5v0d10v5#body = 2.514335e-11
m.xm10.msky130_fd_pr__nfet_g5v0d10v5#dbody = 4.889249e-11
m.xm10.msky130_fd_pr__nfet_g5v0d10v5#sbody = 2.653756e-11
m.xm11.msky130_fd_pr__pfet_g5v0d10v5#body = 2.300000e+00
m.xm11.msky130_fd_pr__pfet_g5v0d10v5#dbody = 2.300000e+00
m.xm11.msky130_fd_pr__pfet_g5v0d10v5#sbody = 2.300000e+00
m.xm12.msky130_fd_pr__pfet_g5v0d10v5#body = 2.300000e+00
m.xm12.msky130_fd_pr__pfet_g5v0d10v5#dbody = 2.300000e+00
m.xm12.msky130_fd_pr__pfet_g5v0d10v5#sbody = 2.300000e+00
m.xm13.msky130_fd_pr__nfet_g5v0d10v5#body = 5.335740e-12
m.xm13.msky130_fd_pr__nfet_g5v0d10v5#dbody = 1.333928e-11
m.xm13.msky130_fd_pr__nfet_g5v0d10v5#sbody = 2.667940e-12
m.xm14.msky130_fd_pr__pfet_g5v0d10v5#body = 2.300000e+00
m.xm14.msky130_fd_pr__pfet_g5v0d10v5#dbody = 2.300000e+00
m.xm14.msky130_fd_pr__pfet_g5v0d10v5#sbody = 2.300000e+00
m.xm15.msky130_fd_pr__nfet_g5v0d10v5#body = 9.054094e-15
m.xm15.msky130_fd_pr__nfet_g5v0d10v5#dbody = 2.263482e-14
m.xm15.msky130_fd_pr__nfet_g5v0d10v5#sbody = 4.527466e-15
m.xm16.msky130_fd_pr__nfet_g5v0d10v5#body = 5.382739e-11
m.xm16.msky130_fd_pr__nfet_g5v0d10v5#dbody = 9.502002e-11
m.xm16.msky130_fd_pr__nfet_g5v0d10v5#sbody = 6.646215e-11
m.xm17.msky130_fd_pr__pfet_g5v0d10v5#body = 2.300000e+00
m.xm17.msky130_fd_pr__pfet_g5v0d10v5#dbody = 2.300000e+00
m.xm17.msky130_fd_pr__pfet_g5v0d10v5#sbody = 2.300000e+00
m.xm18.msky130_fd_pr__nfet_g5v0d10v5#body = 1.720374e-11
m.xm18.msky130_fd_pr__nfet_g5v0d10v5#dbody = 4.300927e-11
m.xm18.msky130_fd_pr__nfet_g5v0d10v5#sbody = 8.601951e-12
m.xm19.msky130_fd_pr__nfet_g5v0d10v5#body = 2.719636e-11
m.xm19.msky130_fd_pr__nfet_g5v0d10v5#dbody = 5.114361e-11
m.xm19.msky130_fd_pr__nfet_g5v0d10v5#sbody = 3.044547e-11
m.xm20.msky130_fd_pr__nfet_g5v0d10v5#body = 1.438081e-11
m.xm20.msky130_fd_pr__nfet_g5v0d10v5#dbody = 3.595193e-11
m.xm20.msky130_fd_pr__nfet_g5v0d10v5#sbody = 7.190482e-12
m.xm22.msky130_fd_pr__nfet_g5v0d10v5#body = 1.171745e-11
m.xm22.msky130_fd_pr__nfet_g5v0d10v5#dbody = 2.929352e-11
m.xm22.msky130_fd_pr__nfet_g5v0d10v5#sbody = 5.858839e-12
m.xm24.msky130_fd_pr__pfet_g5v0d10v5#body = 2.300000e+00
m.xm24.msky130_fd_pr__pfet_g5v0d10v5#dbody = 2.300000e+00
m.xm24.msky130_fd_pr__pfet_g5v0d10v5#sbody = 2.300000e+00
m.xm26.msky130_fd_pr__pfet_g5v0d10v5#body = 2.300000e+00
m.xm26.msky130_fd_pr__pfet_g5v0d10v5#dbody = 2.300000e+00
m.xm26.msky130_fd_pr__pfet_g5v0d10v5#sbody = 2.300000e+00
mir = 1.070334e+00
net1 = 6.384076e-01
net2 = 1.745213e-05
net3 = 7.117712e-01
net4 = 2.498688e-01
net5 = 1.077564e+00
net6 = 9.421108e-01
net7 = 7.117034e-01
net8 = 1.160402e+00
net9 = 1.177254e+00
net10 = 2.663008e-01
net11 = 1.215687e+00
net12 = 1.215687e+00
net13 = 0.000000e+00
out = 1.215687e+00
pos = 1.207054e+00
q.xq2.qsky130_fd_pr__pnp_05v5_w0p68l0p68#collcx = 2.934457e-03
q.xq3.qsky130_fd_pr__pnp_05v5_w0p68l0p68#collcx = 3.735769e-04
q.xq4.qsky130_fd_pr__pnp_05v5_w0p68l0p68#collcx = 3.735769e-04
q.xq8.qsky130_fd_pr__pnp_05v5_w0p68l0p68#collcx = 3.735769e-04
q.xq10.qsky130_fd_pr__pnp_05v5_w0p68l0p68#collcx = 3.735769e-04
q.xq12.qsky130_fd_pr__pnp_05v5_w0p68l0p68#collcx = 3.735769e-04
q.xq14.qsky130_fd_pr__pnp_05v5_w0p68l0p68#collcx = 3.735769e-04
q.xq16.qsky130_fd_pr__pnp_05v5_w0p68l0p68#collcx = 3.735769e-04
q.xq18.qsky130_fd_pr__pnp_05v5_w0p68l0p68#collcx = 3.735769e-04
vb = 9.898525e-01
vdd = 2.300000e+00
vs#branch = -1.02344e-02
vt#branch = 0.000000e+00
xc1.a = 0.000000e+00
xc1.b1 = 0.000000e+00
xc3.a = 1.215687e+00
xc3.b1 = 1.215687e+00
xr1.xsky130_fd_pr__res_xhigh_po_0p69.ra = 7.148874e-01
xr2.xsky130_fd_pr__res_xhigh_po_0p69.ra = 7.149551e-01
xr3.xsky130_fd_pr__res_xhigh_po_0p69.ra = 1.912067e-03
xr4.xsky130_fd_pr__res_xhigh_po_0p69.ra = 6.396984e-01
xr5.xsky130_fd_pr__res_xhigh_po_0p69.ra = 1.911874e-03
xr6.xsky130_fd_pr__res_xhigh_po_0p69.ra = 3.374331e-03
xr7.xsky130_fd_pr__res_xhigh_po_0p69.ra = 1.215687e+00
xr8.xsky130_fd_pr__res_xhigh_po_0p69.ra = 1.212660e+00
xr9.xsky130_fd_pr__res_xhigh_po_0p69.ra = 5.881144e-03
Doing analysis at TEMP = 85.000000 and TNOM = 27.000000


No. of Data Rows : 91
Note: Starting true gmin stepping
Trying gmin =   1.0000E-03 Note: One successful gmin step
Trying gmin =   1.0000E-04 Note: One successful gmin step
Trying gmin =   1.0000E-05 Note: One successful gmin step
Trying gmin =   1.0000E-06 Note: One successful gmin step
Trying gmin =   1.0000E-07 Note: One successful gmin step
Trying gmin =   1.0000E-08 Warning: Further gmin increment
Trying gmin =   5.6234E-08 Warning: Further gmin increment
Trying gmin =   8.6596E-08 Warning: Further gmin increment
Trying gmin =   9.6466E-08 Note: One successful gmin step
Trying gmin =   9.1398E-08 Warning: Further gmin increment
Trying gmin =   9.5173E-08 Warning: Further gmin increment
Trying gmin =   9.6141E-08 Note: One successful gmin step
Trying gmin =   9.5656E-08 Warning: Further gmin increment
Trying gmin =   9.6020E-08 Note: One successful gmin step
Trying gmin =   9.5838E-08 Note: One successful gmin step
Trying gmin =   9.5565E-08 Warning: Further gmin increment
Trying gmin =   9.5770E-08 Note: One successful gmin step
Trying gmin =   9.5667E-08 Warning: Further gmin increment
Trying gmin =   9.5744E-08 Note: One successful gmin step
Trying gmin =   9.5706E-08 Note: One successful gmin step
Trying gmin =   9.5648E-08 Warning: Further gmin increment
Trying gmin =   9.5691E-08 Note: One successful gmin step
Trying gmin =   9.5670E-08 Warning: Further gmin increment
Trying gmin =   9.5686E-08 Note: One successful gmin step
Trying gmin =   9.5678E-08 Note: One successful gmin step
Trying gmin =   9.5666E-08 Warning: Further gmin increment
Trying gmin =   9.5675E-08 Note: One successful gmin step
Trying gmin =   9.5670E-08 Warning: Last gmin step failed
Warning: True gmin stepping failed
Note: Starting dynamic gmin stepping
Trying gmin =   1.0000E-03 Note: One successful gmin step
Trying gmin =   1.0000E-04 Note: One successful gmin step
Trying gmin =   1.0000E-05 Note: One successful gmin step
Trying gmin =   3.1623E-06 Note: One successful gmin step
Trying gmin =   1.0000E-06 Warning: Further gmin increment
Trying gmin =   2.3714E-06 Warning: Further gmin increment
Trying gmin =   2.9427E-06 Note: One successful gmin step
Trying gmin =   2.6416E-06 Warning: Further gmin increment
Trying gmin =   2.8644E-06 Note: One successful gmin step
Trying gmin =   2.7508E-06 Note: One successful gmin step
Trying gmin =   2.5887E-06 Warning: Further gmin increment
Trying gmin =   2.7093E-06 Note: One successful gmin step
Trying gmin =   2.6483E-06 Note: One successful gmin step
Trying gmin =   2.5594E-06 Note: One successful gmin step
Trying gmin =   2.4316E-06 Note: One successful gmin step
Trying gmin =   2.2518E-06 Note: One successful gmin step
Trying gmin =   2.0066E-06 Note: One successful gmin step
Trying gmin =   1.6880E-06 Note: One successful gmin step
Trying gmin =   1.3024E-06 Note: One successful gmin step
Trying gmin =   8.8270E-07 Note: One successful gmin step
Trying gmin =   4.9250E-07 Note: One successful gmin step
Trying gmin =   2.0525E-07 Note: One successful gmin step
Trying gmin =   5.5222E-08 Note: One successful gmin step
Trying gmin =   7.7064E-09 Note: One successful gmin step
Trying gmin =   7.7064E-10 Note: One successful gmin step
Trying gmin =   7.7064E-11 Note: One successful gmin step
Trying gmin =   7.7064E-12 Note: One successful gmin step
Trying gmin =   1.0000E-12 Note: One successful gmin step
Note: Dynamic gmin stepping completed
 Reference value :  2.80000e+00Note: Starting true gmin stepping
Trying gmin =   1.0000E-03 Note: One successful gmin step
Trying gmin =   1.0000E-04 Note: One successful gmin step
Trying gmin =   1.0000E-05 Note: One successful gmin step
Trying gmin =   1.0000E-06 Note: One successful gmin step
Trying gmin =   1.0000E-07 Note: One successful gmin step
Trying gmin =   1.0000E-08 Warning: Further gmin increment
Trying gmin =   5.6234E-08 Note: One successful gmin step
Trying gmin =   2.3714E-08 Note: One successful gmin step
Trying gmin =   6.4938E-09 Warning: Further gmin increment
Trying gmin =   1.7154E-08 Note: One successful gmin step
Trying gmin =   1.0554E-08 Note: One successful gmin step
Trying gmin =   5.0937E-09 Warning: Further gmin increment
Trying gmin =   8.7970E-09 Note: One successful gmin step
Trying gmin =   6.6940E-09 Note: One successful gmin step
Trying gmin =   4.4433E-09 Note: One successful gmin step
Trying gmin =   2.4029E-09 Note: One successful gmin step
Trying gmin =   9.5562E-10 Note: One successful gmin step
Trying gmin =   2.3967E-10 Note: One successful gmin step
Trying gmin =   3.0102E-11 Note: One successful gmin step
Trying gmin =   3.0102E-12 Note: One successful gmin step
Trying gmin =   1.0000E-12 Note: One successful gmin step
Note: True gmin stepping completed
 Reference value :  1.32000e+00Note: Starting true gmin stepping
Trying gmin =   1.0000E-03 Note: One successful gmin step
Trying gmin =   1.0000E-04 Note: One successful gmin step
Trying gmin =   1.0000E-05 Note: One successful gmin step
Trying gmin =   1.0000E-06 Note: One successful gmin step
Trying gmin =   1.0000E-07 Note: One successful gmin step
Trying gmin =   1.0000E-08 Warning: Further gmin increment
Trying gmin =   5.6234E-08 Note: One successful gmin step
Trying gmin =   2.3714E-08 Note: One successful gmin step
Trying gmin =   6.4938E-09 Warning: Further gmin increment
Trying gmin =   1.7154E-08 Note: One successful gmin step
Trying gmin =   1.0554E-08 Note: One successful gmin step
Trying gmin =   5.0937E-09 Note: One successful gmin step
Trying gmin =   1.7077E-09 Warning: Further gmin increment
Trying gmin =   3.8760E-09 Note: One successful gmin step
Trying gmin =   2.5728E-09 Note: One successful gmin step
Trying gmin =   1.3913E-09 Note: One successful gmin step
Trying gmin =   5.5333E-10 Note: One successful gmin step
Trying gmin =   1.3877E-10 Note: One successful gmin step
Trying gmin =   1.7430E-11 Note: One successful gmin step
Trying gmin =   1.7430E-12 Note: One successful gmin step
Trying gmin =   1.0000E-12 Note: One successful gmin step
Note: True gmin stepping completed
 Reference value :  5.80000e-01pm                  =  -6.655315e+01
Doing analysis at TEMP = 85.000000 and TNOM = 27.000000


No. of Data Rows : 91
psrr100             =  -4.969748e+01
psrr100k            =  -2.445204e+01
Doing analysis at TEMP = 85.000000 and TNOM = 27.000000


No. of Data Rows : 86
temp_coeff = 1.822120e+02
Doing analysis at TEMP = 85.000000 and TNOM = 27.000000


No. of Data Rows : 141
vldo_sup_2          =  1.814672e+00
vldo_sup_2_8        =  1.817234e+00
line_reg = 3.202500e-03
Note: No ".plot", ".print", or ".fourier" lines; no simulations run
vin                 =  1.787164e+00
dropout = 2.316400e-02
