Note: Starting true gmin stepping
Trying gmin =   1.0000E-03 Note: One successful gmin step
Trying gmin =   1.0000E-04 Note: One successful gmin step
Trying gmin =   1.0000E-05 Note: One successful gmin step
Trying gmin =   1.0000E-06 Note: One successful gmin step
Trying gmin =   1.0000E-07 Warning: Further gmin increment
Trying gmin =   5.6234E-07 Note: One successful gmin step
Trying gmin =   2.3714E-07 Note: One successful gmin step
Trying gmin =   6.4938E-08 Warning: Further gmin increment
Trying gmin =   1.7154E-07 Note: One successful gmin step
Trying gmin =   1.0554E-07 Warning: Further gmin increment
Trying gmin =   1.5193E-07 Note: One successful gmin step
Trying gmin =   1.2663E-07 Warning: Further gmin increment
Trying gmin =   1.4517E-07 Note: One successful gmin step
Trying gmin =   1.3558E-07 Warning: Further gmin increment
Trying gmin =   1.4271E-07 Note: One successful gmin step
Trying gmin =   1.3910E-07 Note: One successful gmin step
Trying gmin =   1.3386E-07 Note: One successful gmin step
Trying gmin =   1.3131E-07 Note: One successful gmin step
Trying gmin =   1.2758E-07 Note: One successful gmin step
Trying gmin =   1.2218E-07 Note: One successful gmin step
Trying gmin =   1.1451E-07 Note: One successful gmin step
Trying gmin =   1.0390E-07 Note: One successful gmin step
Trying gmin =   8.9798E-08 Note: One successful gmin step
Trying gmin =   7.2150E-08 Note: One successful gmin step
Trying gmin =   5.1963E-08 Note: One successful gmin step
Trying gmin =   3.1760E-08 Note: One successful gmin step
Trying gmin =   1.5176E-08 Note: One successful gmin step
Trying gmin =   5.0127E-09 Note: One successful gmin step
Trying gmin =   9.5158E-10 Note: One successful gmin step
Trying gmin =   9.5158E-11 Note: One successful gmin step
Trying gmin =   9.5158E-12 Note: One successful gmin step
Trying gmin =   1.0000E-12 Note: One successful gmin step
Note: True gmin stepping completed
 Reference value :  0.00000e+00
No compatibility mode selected!


Circuit: * ldo netlist 

Doing analysis at TEMP = 0.000000 and TNOM = 27.000000


No. of Data Rows : 1
bg_out = 5.769033e-01
inn = 7.958287e-01
inp = 7.953711e-01
l1#branch = -6.93889e-18
ldo_out = 9.522071e-01
m.xm1.msky130_fd_pr__nfet_g5v0d10v5#body = 1.089081e-11
m.xm1.msky130_fd_pr__nfet_g5v0d10v5#dbody = 2.615273e-11
m.xm1.msky130_fd_pr__nfet_g5v0d10v5#sbody = 6.519711e-12
m.xm2.msky130_fd_pr__pfet_g5v0d10v5#body = 2.100000e+00
m.xm2.msky130_fd_pr__pfet_g5v0d10v5#dbody = 2.100000e+00
m.xm2.msky130_fd_pr__pfet_g5v0d10v5#sbody = 2.100000e+00
m.xm3.msky130_fd_pr__pfet_g5v0d10v5#body = 2.100000e+00
m.xm3.msky130_fd_pr__pfet_g5v0d10v5#dbody = 2.100000e+00
m.xm3.msky130_fd_pr__pfet_g5v0d10v5#sbody = 2.100000e+00
m.xm4.msky130_fd_pr__pfet_g5v0d10v5#body = 2.100000e+00
m.xm4.msky130_fd_pr__pfet_g5v0d10v5#dbody = 2.100000e+00
m.xm4.msky130_fd_pr__pfet_g5v0d10v5#sbody = 2.100000e+00
m.xm5.msky130_fd_pr__pfet_g5v0d10v5#body = 2.100000e+00
m.xm5.msky130_fd_pr__pfet_g5v0d10v5#dbody = 2.100000e+00
m.xm5.msky130_fd_pr__pfet_g5v0d10v5#sbody = 2.100000e+00
m.xm6.msky130_fd_pr__nfet_g5v0d10v5#body = 1.076434e-11
m.xm6.msky130_fd_pr__nfet_g5v0d10v5#dbody = 2.691085e-11
m.xm6.msky130_fd_pr__nfet_g5v0d10v5#sbody = 5.382172e-12
m.xm7.msky130_fd_pr__pfet_g5v0d10v5#body = 2.100000e+00
m.xm7.msky130_fd_pr__pfet_g5v0d10v5#dbody = 2.100000e+00
m.xm7.msky130_fd_pr__pfet_g5v0d10v5#sbody = 2.100000e+00
m.xm8.msky130_fd_pr__pfet_g5v0d10v5#body = 2.100000e+00
m.xm8.msky130_fd_pr__pfet_g5v0d10v5#dbody = 2.100000e+00
m.xm8.msky130_fd_pr__pfet_g5v0d10v5#sbody = 2.100000e+00
m.xm9.msky130_fd_pr__nfet_g5v0d10v5#body = 1.374236e-11
m.xm9.msky130_fd_pr__nfet_g5v0d10v5#dbody = 3.432289e-11
m.xm9.msky130_fd_pr__nfet_g5v0d10v5#sbody = 6.904197e-12
m.xm10.msky130_fd_pr__nfet_g5v0d10v5#body = 1.106737e-11
m.xm10.msky130_fd_pr__nfet_g5v0d10v5#dbody = 2.763541e-11
m.xm10.msky130_fd_pr__nfet_g5v0d10v5#sbody = 5.566702e-12
m.xm11.msky130_fd_pr__pfet_g5v0d10v5#body = 2.100000e+00
m.xm11.msky130_fd_pr__pfet_g5v0d10v5#dbody = 2.100000e+00
m.xm11.msky130_fd_pr__pfet_g5v0d10v5#sbody = 2.100000e+00
m.xm12.msky130_fd_pr__pfet_g5v0d10v5#body = 2.100000e+00
m.xm12.msky130_fd_pr__pfet_g5v0d10v5#dbody = 2.100000e+00
m.xm12.msky130_fd_pr__pfet_g5v0d10v5#sbody = 2.100000e+00
m.xm13.msky130_fd_pr__nfet_g5v0d10v5#body = 1.650718e-14
m.xm13.msky130_fd_pr__nfet_g5v0d10v5#dbody = 4.126786e-14
m.xm13.msky130_fd_pr__nfet_g5v0d10v5#sbody = 8.253695e-15
m.xm14.msky130_fd_pr__pfet_g5v0d10v5#body = 2.100000e+00
m.xm14.msky130_fd_pr__pfet_g5v0d10v5#dbody = 2.100000e+00
m.xm14.msky130_fd_pr__pfet_g5v0d10v5#sbody = 2.100000e+00
m.xm15.msky130_fd_pr__nfet_g5v0d10v5#body = 6.704046e-13
m.xm15.msky130_fd_pr__nfet_g5v0d10v5#dbody = 1.676012e-12
m.xm15.msky130_fd_pr__nfet_g5v0d10v5#sbody = 3.352024e-13
m.xm16.msky130_fd_pr__nfet_g5v0d10v5#body = 3.619798e-11
m.xm16.msky130_fd_pr__nfet_g5v0d10v5#dbody = 7.059911e-11
m.xm16.msky130_fd_pr__nfet_g5v0d10v5#sbody = 3.799482e-11
m.xm17.msky130_fd_pr__pfet_g5v0d10v5#body = 2.100000e+00
m.xm17.msky130_fd_pr__pfet_g5v0d10v5#dbody = 2.100000e+00
m.xm17.msky130_fd_pr__pfet_g5v0d10v5#sbody = 2.100000e+00
m.xm18.msky130_fd_pr__nfet_g5v0d10v5#body = 1.157518e-11
m.xm18.msky130_fd_pr__nfet_g5v0d10v5#dbody = 2.893793e-11
m.xm18.msky130_fd_pr__nfet_g5v0d10v5#sbody = 5.787594e-12
m.xm19.msky130_fd_pr__nfet_g5v0d10v5#body = 1.155518e-11
m.xm19.msky130_fd_pr__nfet_g5v0d10v5#dbody = 2.781365e-11
m.xm19.msky130_fd_pr__nfet_g5v0d10v5#sbody = 6.851895e-12
m.xm20.msky130_fd_pr__nfet_g5v0d10v5#body = 1.071408e-11
m.xm20.msky130_fd_pr__nfet_g5v0d10v5#dbody = 2.678519e-11
m.xm20.msky130_fd_pr__nfet_g5v0d10v5#sbody = 5.357045e-12
m.xm22.msky130_fd_pr__nfet_g5v0d10v5#body = 5.371822e-13
m.xm22.msky130_fd_pr__nfet_g5v0d10v5#dbody = 1.342954e-12
m.xm22.msky130_fd_pr__nfet_g5v0d10v5#sbody = 2.685924e-13
m.xm24.msky130_fd_pr__pfet_g5v0d10v5#body = 2.100000e+00
m.xm24.msky130_fd_pr__pfet_g5v0d10v5#dbody = 2.100000e+00
m.xm24.msky130_fd_pr__pfet_g5v0d10v5#sbody = 2.100000e+00
m.xm26.msky130_fd_pr__pfet_g5v0d10v5#body = 2.100000e+00
m.xm26.msky130Note: Starting true gmin stepping
Trying gmin =   1.0000E-03 Note: One successful gmin step
Trying gmin =   1.0000E-04 Note: One successful gmin step
Trying gmin =   1.0000E-05 Note: One successful gmin step
Trying gmin =   1.0000E-06 Note: One successful gmin step
Trying gmin =   1.0000E-07 Warning: Further gmin increment
Trying gmin =   5.6234E-07 Note: One successful gmin step
Trying gmin =   2.3714E-07 Note: One successful gmin step
Trying gmin =   6.4938E-08 Warning: Further gmin increment
Trying gmin =   1.7154E-07 Note: One successful gmin step
Trying gmin =   1.0554E-07 Warning: Further gmin increment
Trying gmin =   1.5193E-07 Note: One successful gmin step
Trying gmin =   1.2663E-07 Warning: Further gmin increment
Trying gmin =   1.4517E-07 Note: One successful gmin step
Trying gmin =   1.3558E-07 Warning: Further gmin increment
Trying gmin =   1.4271E-07 Note: One successful gmin step
Trying gmin =   1.3910E-07 Note: One successful gmin step
Trying gmin =   1.3386E-07 Note: One successful gmin step
Trying gmin =   1.3131E-07 Note: One successful gmin step
Trying gmin =   1.2758E-07 Note: One successful gmin step
Trying gmin =   1.2218E-07 Note: One successful gmin step
Trying gmin =   1.1451E-07 Note: One successful gmin step
Trying gmin =   1.0390E-07 Note: One successful gmin step
Trying gmin =   8.9798E-08 Note: One successful gmin step
Trying gmin =   7.2150E-08 Note: One successful gmin step
Trying gmin =   5.1963E-08 Note: One successful gmin step
Trying gmin =   3.1760E-08 Note: One successful gmin step
Trying gmin =   1.5176E-08 Note: One successful gmin step
Trying gmin =   5.0127E-09 Note: One successful gmin step
Trying gmin =   9.5158E-10 Note: One successful gmin step
Trying gmin =   9.5158E-11 Note: One successful gmin step
Trying gmin =   9.5158E-12 Note: One successful gmin step
Trying gmin =   1.0000E-12 Note: One successful gmin step
Note: True gmin stepping completed
_fd_pr__pfet_g5v0d10v5#dbody = 2.100000e+00
m.xm26.msky130_fd_pr__pfet_g5v0d10v5#sbody = 2.100000e+00
mir = 8.282882e-01
net1 = 6.103521e-01
net2 = 5.361916e-02
net3 = 6.108984e-01
net4 = 4.296834e-02
net5 = 8.814376e-01
net6 = 8.611395e-01
net7 = 6.104362e-01
net8 = 8.840658e-01
net9 = 1.098065e+00
net10 = 1.320486e-03
net11 = 9.260123e-01
net12 = 9.260123e-01
net13 = 0.000000e+00
out = 9.260123e-01
pos = 5.796371e-01
q.xq2.qsky130_fd_pr__pnp_05v5_w0p68l0p68#collcx = 3.447105e-07
q.xq3.qsky130_fd_pr__pnp_05v5_w0p68l0p68#collcx = 3.370592e-07
q.xq4.qsky130_fd_pr__pnp_05v5_w0p68l0p68#collcx = 3.370592e-07
q.xq8.qsky130_fd_pr__pnp_05v5_w0p68l0p68#collcx = 3.370592e-07
q.xq10.qsky130_fd_pr__pnp_05v5_w0p68l0p68#collcx = 3.370592e-07
q.xq12.qsky130_fd_pr__pnp_05v5_w0p68l0p68#collcx = 3.370592e-07
q.xq14.qsky130_fd_pr__pnp_05v5_w0p68l0p68#collcx = 3.370592e-07
q.xq16.qsky130_fd_pr__pnp_05v5_w0p68l0p68#collcx = 3.370592e-07
q.xq18.qsky130_fd_pr__pnp_05v5_w0p68l0p68#collcx = 3.370592e-07
vb = 8.571244e-01
vdd = 2.100000e+00
vs#branch = -5.34327e-03
vt#branch = 0.000000e+00
xc1.a = 0.000000e+00
xc1.b1 = 0.000000e+00
xc3.a = 9.260123e-01
xc3.b1 = 9.260123e-01
xr1.xsky130_fd_pr__res_xhigh_po_0p69.ra = 6.142881e-01
xr2.xsky130_fd_pr__res_xhigh_po_0p69.ra = 6.147502e-01
xr3.xsky130_fd_pr__res_xhigh_po_0p69.ra = 3.952687e-03
xr4.xsky130_fd_pr__res_xhigh_po_0p69.ra = 6.103556e-01
xr5.xsky130_fd_pr__res_xhigh_po_0p69.ra = 3.949551e-03
xr6.xsky130_fd_pr__res_xhigh_po_0p69.ra = 3.987565e-03
xr7.xsky130_fd_pr__res_xhigh_po_0p69.ra = 9.260123e-01
xr8.xsky130_fd_pr__res_xhigh_po_0p69.ra = 5.858349e-01
xr9.xsky130_fd_pr__res_xhigh_po_0p69.ra = 6.289374e-03
Doing analysis at TEMP = 0.000000 and TNOM = 27.000000


No. of Data Rows : 91
Error: no such vector PM
Note: Starting true gmin stepping
Trying gmin =   1.0000E-03 Note: One successful gmin step
Trying gmin =   1.0000E-04 Note: One successful gmin step
Trying gmin =   1.0000E-05 Note: One successful gmin step
Trying gmin =   1.0000E-06 Note: One successful gmin step
Trying gmin =   1.0000E-07 Warning: Further gmin increment
Trying gmin =   5.6234E-07 Note: One successful gmin step
Trying gmin =   2.3714E-07 Note: One successful gmin step
Trying gmin =   6.4938E-08 Warning: Further gmin increment
Trying gmin =   1.7154E-07 Note: One successful gmin step
Trying gmin =   1.0554E-07 Warning: Further gmin increment
Trying gmin =   1.5193E-07 Note: One successful gmin step
Trying gmin =   1.2663E-07 Warning: Further gmin increment
Trying gmin =   1.4517E-07 Note: One successful gmin step
Trying gmin =   1.3558E-07 Warning: Further gmin increment
Trying gmin =   1.4271E-07 Note: One successful gmin step
Trying gmin =   1.3910E-07 Note: One successful gmin step
Trying gmin =   1.3386E-07 Note: One successful gmin step
Trying gmin =   1.3131E-07 Note: One successful gmin step
Trying gmin =   1.2758E-07 Note: One successful gmin step
Trying gmin =   1.2218E-07 Note: One successful gmin step
Trying gmin =   1.1451E-07 Note: One successful gmin step
Trying gmin =   1.0390E-07 Note: One successful gmin step
Trying gmin =   8.9798E-08 Note: One successful gmin step
Trying gmin =   7.2150E-08 Note: One successful gmin step
Trying gmin =   5.1963E-08 Note: One successful gmin step
Trying gmin =   3.1760E-08 Note: One successful gmin step
Trying gmin =   1.5176E-08 Note: One successful gmin step
Trying gmin =   5.0127E-09 Note: One successful gmin step
Trying gmin =   9.5158E-10 Note: One successful gmin step
Trying gmin =   9.5158E-11 Note: One successful gmin step
Trying gmin =   9.5158E-12 Note: One successful gmin step
Trying gmin =   1.0000E-12 Note: One successful gmin step
Note: True gmin stepping completed
 Reference value :  1.00000e+00Note: Starting true gmin stepping
Trying gmin =   1.0000E-03 Note: One successful gmin step
Trying gmin =   1.0000E-04 Note: One successful gmin step
Trying gmin =   1.0000E-05 Note: One successful gmin step
Trying gmin =   1.0000E-06 Note: One successful gmin step
Trying gmin =   1.0000E-07 Note: One successful gmin step
Trying gmin =   1.0000E-08 Warning: Further gmin increment
Trying gmin =   5.6234E-08 Note: One successful gmin step
Trying gmin =   2.3714E-08 Warning: Further gmin increment
Trying gmin =   4.5316E-08 Note: One successful gmin step
Trying gmin =   3.2781E-08 Warning: Further gmin increment
Trying gmin =   4.1792E-08 Note: One successful gmin step
Trying gmin =   3.7013E-08 Warning: Further gmin increment
Trying gmin =   4.0542E-08 Note: One successful gmin step
Trying gmin =   3.8738E-08 Warning: Further gmin increment
Trying gmin =   4.0084E-08 Note: One successful gmin step
Trying gmin =   3.9405E-08 Warning: Further gmin increment
Trying gmin =   3.9913E-08 Warning: Further gmin increment
Trying gmin =   4.0041E-08 Note: One successful gmin step
Trying gmin =   3.9977E-08 Warning: Further gmin increment
Trying gmin =   4.0025E-08 Warning: Further gmin increment
Trying gmin =   4.0037E-08 Note: One successful gmin step
Trying gmin =   4.0031E-08 Note: One successful gmin step
Trying gmin =   4.0022E-08 Warning: Further gmin increment
Trying gmin =   4.0029E-08 Warning: Further gmin increment
Trying gmin =   4.0030E-08 Note: One successful gmin step
Trying gmin =   4.0029E-08 Note: One successful gmin step
Trying gmin =   4.0028E-08 Warning: Last gmin step failed
Warning: True gmin stepping failed
Note: Starting dynamic gmin stepping
Trying gmin =   1.0000E-03 Note: One successful gmin step
Trying gmin =   1.0000E-04 Note: One successful gmin step
Trying gmin =   1.0000E-05 Note: One successful gmin step
Trying gmin =   1.0000E-06 Warning: Further gmin increment
Trying gmin =   5.6234E-06 Note: One successful gmin step
Trying gmin =   3.1623E-06 Note: One successful gmin step
Trying gmin =   1.3335E-06 Note: One successful gmin step
Trying gmin =   3.6517E-07 Warning: Further gmin increment
Trying gmin =   9.6466E-07 Warning: Further gmin increment
Trying gmin =   1.2298E-06 Warning: Further gmin increment
Trying gmin =   1.3068E-06 Note: One successful gmin step
Trying gmin =   1.2677E-06 Note: One successful gmin step
Trying gmin =   1.2113E-06 Note: One successful gmin step
Trying gmin =   1.1313E-06 Note: One successful gmin step
Trying gmin =   1.0212E-06 Note: One successful gmin step
Trying gmin =   8.7569E-07 Note: One successful gmin step
Trying gmin =   6.9541E-07 Note: One successful gmin step
Trying gmin =   4.9212E-07 Note: One successful gmin step
Trying gmin =   2.9297E-07 Note: One successful gmin step
Trying gmin =   1.3457E-07 Note: One successful gmin step
Trying gmin =   4.1890E-08 Note: One successful gmin step
Trying gmin =   7.2758E-09 Note: One successful gmin step
Trying gmin =   7.2758E-10 Note: One successful gmin step
Trying gmin =   7.2758E-11 Note: One successful gmin step
Trying gmin =   7.2758E-12 Note: One successful gmin step
Trying gmin =   1.0000E-12 Note: One successful gmin step
Note: Dynamic gmin stepping completed
 Reference value :  2.80000e+00Note: Starting true gmin stepping
Trying gmin =   1.0000E-03 Note: One successful gmin step
Trying gmin =   1.0000E-04 Note: One successful gmin step
Trying gmin =   1.0000E-05 Note: One successful gmin step
Trying gmin =   1.0000E-06 Note: One successful gmin step
Trying gmin =   1.0000E-07 Note: One successful gmin step
Trying gmin =   1.0000E-08 Warning: Further gmin increment
Trying gmin =   5.6234E-08 Note: One successful gmin step
Trying gmin =   2.3714E-08 Note: One successful gmin step
Trying gmin =   6.4938E-09 Warning: Further gmin increment
Trying gmin =   1.7154E-08 Note: One successful gmin step
Trying gmin =   1.0554E-08 Warning: Further gmin increment
Trying gmin =   1.5193E-08 Warning: Further gmin increment
Trying gmin =   1.6641E-08 Note: One successful gmin step
Trying gmin =   1.5901E-08 Note: One successful gmin step
Trying gmin =   1.4851E-08 Note: One successful gmin step
Trying gmin =   1.3405E-08 Note: One successful gmin step
Trying gmin =   1.1495E-08 Note: One successful gmin step
Trying gmin =   9.1286E-09 Note: One successful gmin step
Trying gmin =   6.4600E-09 Note: One successful gmin step
Trying gmin =   3.8457E-09 Note: One successful gmin step
Trying gmin =   1.7664E-09 Note: One successful gmin step
Trying gmin =   5.4989E-10 Note: One successful gmin step
Trying gmin =   9.5509E-11 Note: One successful gmin step
Trying gmin =   9.5509E-12 Note: One successful gmin step
Trying gmin =   1.0000E-12 Note: One successful gmin step
Note: True gmin stepping completed
Note: Starting true gmin stepping
Trying gmin =   1.0000E-03 Note: One successful gmin step
Trying gmin =   1.0000E-04 Note: One successful gmin step
Trying gmin =   1.0000E-05 Note: One successful gmin step
Trying gmin =   1.0000E-06 Note: One successful gmin step
Trying gmin =   1.0000E-07 Note: One successful gmin step
Trying gmin =   1.0000E-08 Warning: Further gmin increment
Trying gmin =   5.6234E-08 Note: One successful gmin step
Trying gmin =   2.3714E-08 Note: One successful gmin step
Trying gmin =   6.4938E-09 Warning: Further gmin increment
Trying gmin =   1.7154E-08 Note: One successful gmin step
Trying gmin =   1.0554E-08 Warning: Further gmin increment
Trying gmin =   1.5193E-08 Note: One successful gmin step
Trying gmin =   1.2663E-08 Warning: Further gmin increment
Trying gmin =   1.4517E-08 Note: One successful gmin step
Trying gmin =   1.3558E-08 Warning: Further gmin increment
Trying gmin =   1.4271E-08 Note: One successful gmin step
Trying gmin =   1.3910E-08 Note: One successful gmin step
Trying gmin =   1.3386E-08 Note: One successful gmin step
Trying gmin =   1.2636E-08 Note: One successful gmin step
Trying gmin =   1.1590E-08 Note: One successful gmin step
Trying gmin =   1.0180E-08 Note: One successful gmin step
Trying gmin =   8.3808E-09 Note: One successful gmin step
Trying gmin =   6.2601E-09 Note: One successful gmin step
Trying gmin =   4.0413E-09 Note: One successful gmin step
Trying gmin =   2.0962E-09 Note: One successful gmin step
Trying gmin =   7.8308E-10 Note: One successful gmin step
Trying gmin =   1.7880E-10 Note: One successful gmin step
Trying gmin =   1.9507E-11 Note: One successful gmin step
Trying gmin =   1.9507E-12 Note: One successful gmin step
Trying gmin =   1.0000E-12 Note: One successful gmin step
Note: True gmin stepping completed
 Reference value :  1.40000e+00Note: Starting true gmin stepping
Trying gmin =   1.0000E-03 Note: One successful gmin step
Trying gmin =   1.0000E-04 Note: One successful gmin step
Trying gmin =   1.0000E-05 Note: One successful gmin step
Trying gmin =   1.0000E-06 Note: One successful gmin step
Trying gmin =   1.0000E-07 Note: One successful gmin step
Trying gmin =   1.0000E-08 Note: One successful gmin step
Trying gmin =   1.0000E-09 Warning: Further gmin increment
Trying gmin =   5.6234E-09 Note: One successful gmin step
Trying gmin =   2.3714E-09 Note: One successful gmin step
Trying gmin =   6.4938E-10 Note: One successful gmin step
Trying gmin =   3.3982E-10 Note: One successful gmin step
Trying gmin =   1.2864E-10 Note: One successful gmin step
Trying gmin =   2.9961E-11 Note: One successful gmin step
Trying gmin =   3.3678E-12 Note: One successful gmin step
Trying gmin =   1.0000E-12 Note: One successful gmin step
Note: True gmin stepping completed
Note: Starting true gmin stepping
Trying gmin =   1.0000E-03 Note: One successful gmin step
Trying gmin =   1.0000E-04 Note: One successful gmin step
Trying gmin =   1.0000E-05 Note: One successful gmin step
Trying gmin =   1.0000E-06 Note: One successful gmin step
Trying gmin =   1.0000E-07 Note: One successful gmin step
Trying gmin =   1.0000E-08 Note: One successful gmin step
Trying gmin =   1.0000E-09 Note: One successful gmin step
Trying gmin =   1.0000E-10 Note: One successful gmin step
Trying gmin =   1.0000E-11 Note: One successful gmin step
Trying gmin =   1.0000E-12 Warning: Further gmin increment
Trying gmin =   5.6234E-12 Note: One successful gmin step
Trying gmin =   2.3714E-12 Note: One successful gmin step
Trying gmin =   1.0000E-12 Warning: Further gmin increment
Trying gmin =   1.9110E-12 Note: One successful gmin step
Trying gmin =   1.3824E-12 Note: One successful gmin step
Trying gmin =   1.0000E-12 Warning: Further gmin increment
Trying gmin =   1.2749E-12 Note: One successful gmin step
Trying gmin =   1.1291E-12 Note: One successful gmin step
Trying gmin =   1.0000E-12 Note: One successful gmin step
Warning: True gmin stepping failed
Note: Starting dynamic gmin stepping
Trying gmin =   1.0000E-03 Note: One successful gmin step
Trying gmin =   1.0000E-04 Note: One successful gmin step
Trying gmin =   1.0000E-05 Note: One successful gmin step
Trying gmin =   1.0000E-06 Note: One successful gmin step
Trying gmin =   1.0000E-07 Note: One successful gmin step
Trying gmin =   1.0000E-08 Note: One successful gmin step
Trying gmin =   1.0000E-09 Note: One successful gmin step
Trying gmin =   1.0000E-10 Note: One successful gmin step
Trying gmin =   1.0000E-11 Note: One successful gmin step
Trying gmin =   1.0000E-12 Note: One successful gmin step
Trying gmin =   1.0000E-12 Note: One successful gmin step
Note: Dynamic gmin stepping completed
 Reference value :  4.00000e-02
Error: measure  pm  (AT) : out of interval
 meas ac pm find p when vdb(ldo_out)=0 failed!

Doing analysis at TEMP = 0.000000 and TNOM = 27.000000


No. of Data Rows : 91
psrr100             =  -3.147250e+01
psrr100k            =  -4.919394e+00
Doing analysis at TEMP = 0.000000 and TNOM = 27.000000


No. of Data Rows : 86
temp_coeff = 3.315540e+01
Doing analysis at TEMP = 0.000000 and TNOM = 27.000000


No. of Data Rows : 141
vldo_sup_2          =  1.803004e+00
vldo_sup_2_8        =  1.802177e+00
line_reg = 1.033750e-03
Note: No ".plot", ".print", or ".fourier" lines; no simulations run
vin                 =  1.785469e+00
dropout = 2.146900e-02
