 Reference value :  0.00000e+00
No compatibility mode selected!


Circuit: * ldo netlist 

Doing analysis at TEMP = 85.000000 and TNOM = 27.000000


No. of Data Rows : 1
bg_out = 1.105220e+00
inn = 1.072103e+00
inp = 1.071969e+00
l1#branch = 0.000000e+00
ldo_out = 1.817270e+00
m.xm1.msky130_fd_pr__nfet_g5v0d10v5#body = 2.627968e-11
m.xm1.msky130_fd_pr__nfet_g5v0d10v5#dbody = 5.040400e-11
m.xm1.msky130_fd_pr__nfet_g5v0d10v5#sbody = 2.843503e-11
m.xm2.msky130_fd_pr__pfet_g5v0d10v5#body = 2.300000e+00
m.xm2.msky130_fd_pr__pfet_g5v0d10v5#dbody = 2.300000e+00
m.xm2.msky130_fd_pr__pfet_g5v0d10v5#sbody = 2.300000e+00
m.xm3.msky130_fd_pr__pfet_g5v0d10v5#body = 2.300000e+00
m.xm3.msky130_fd_pr__pfet_g5v0d10v5#dbody = 2.300000e+00
m.xm3.msky130_fd_pr__pfet_g5v0d10v5#sbody = 2.300000e+00
m.xm4.msky130_fd_pr__pfet_g5v0d10v5#body = 2.300000e+00
m.xm4.msky130_fd_pr__pfet_g5v0d10v5#dbody = 2.300000e+00
m.xm4.msky130_fd_pr__pfet_g5v0d10v5#sbody = 2.300000e+00
m.xm5.msky130_fd_pr__pfet_g5v0d10v5#body = 2.300000e+00
m.xm5.msky130_fd_pr__pfet_g5v0d10v5#dbody = 2.300000e+00
m.xm5.msky130_fd_pr__pfet_g5v0d10v5#sbody = 2.300000e+00
m.xm6.msky130_fd_pr__nfet_g5v0d10v5#body = 2.041086e-11
m.xm6.msky130_fd_pr__nfet_g5v0d10v5#dbody = 5.102702e-11
m.xm6.msky130_fd_pr__nfet_g5v0d10v5#sbody = 1.020555e-11
m.xm7.msky130_fd_pr__pfet_g5v0d10v5#body = 2.300000e+00
m.xm7.msky130_fd_pr__pfet_g5v0d10v5#dbody = 2.300000e+00
m.xm7.msky130_fd_pr__pfet_g5v0d10v5#sbody = 2.300000e+00
m.xm8.msky130_fd_pr__pfet_g5v0d10v5#body = 2.300000e+00
m.xm8.msky130_fd_pr__pfet_g5v0d10v5#dbody = 2.300000e+00
m.xm8.msky130_fd_pr__pfet_g5v0d10v5#sbody = 2.300000e+00
m.xm9.msky130_fd_pr__nfet_g5v0d10v5#body = 2.451332e-11
m.xm9.msky130_fd_pr__nfet_g5v0d10v5#dbody = 4.912402e-11
m.xm9.msky130_fd_pr__nfet_g5v0d10v5#sbody = 2.441593e-11
m.xm10.msky130_fd_pr__nfet_g5v0d10v5#body = 2.431451e-11
m.xm10.msky130_fd_pr__nfet_g5v0d10v5#dbody = 4.862701e-11
m.xm10.msky130_fd_pr__nfet_g5v0d10v5#sbody = 2.431653e-11
m.xm11.msky130_fd_pr__pfet_g5v0d10v5#body = 2.300000e+00
m.xm11.msky130_fd_pr__pfet_g5v0d10v5#dbody = 2.300000e+00
m.xm11.msky130_fd_pr__pfet_g5v0d10v5#sbody = 2.300000e+00
m.xm12.msky130_fd_pr__pfet_g5v0d10v5#body = 2.300000e+00
m.xm12.msky130_fd_pr__pfet_g5v0d10v5#dbody = 2.300000e+00
m.xm12.msky130_fd_pr__pfet_g5v0d10v5#sbody = 2.300000e+00
m.xm13.msky130_fd_pr__nfet_g5v0d10v5#body = 4.436581e-12
m.xm13.msky130_fd_pr__nfet_g5v0d10v5#dbody = 1.109139e-11
m.xm13.msky130_fd_pr__nfet_g5v0d10v5#sbody = 2.218357e-12
m.xm14.msky130_fd_pr__pfet_g5v0d10v5#body = 2.300000e+00
m.xm14.msky130_fd_pr__pfet_g5v0d10v5#dbody = 2.300000e+00
m.xm14.msky130_fd_pr__pfet_g5v0d10v5#sbody = 2.300000e+00
m.xm15.msky130_fd_pr__nfet_g5v0d10v5#body = 2.430429e-14
m.xm15.msky130_fd_pr__nfet_g5v0d10v5#dbody = 6.075992e-14
m.xm15.msky130_fd_pr__nfet_g5v0d10v5#sbody = 1.215296e-14
m.xm16.msky130_fd_pr__nfet_g5v0d10v5#body = 5.275762e-11
m.xm16.msky130_fd_pr__nfet_g5v0d10v5#dbody = 9.448513e-11
m.xm16.msky130_fd_pr__nfet_g5v0d10v5#sbody = 6.378772e-11
m.xm17.msky130_fd_pr__pfet_g5v0d10v5#body = 2.300000e+00
m.xm17.msky130_fd_pr__pfet_g5v0d10v5#dbody = 2.300000e+00
m.xm17.msky130_fd_pr__pfet_g5v0d10v5#sbody = 2.300000e+00
m.xm18.msky130_fd_pr__nfet_g5v0d10v5#body = 1.071365e-11
m.xm18.msky130_fd_pr__nfet_g5v0d10v5#dbody = 2.678405e-11
m.xm18.msky130_fd_pr__nfet_g5v0d10v5#sbody = 5.356905e-12
m.xm19.msky130_fd_pr__nfet_g5v0d10v5#body = 2.646965e-11
m.xm19.msky130_fd_pr__nfet_g5v0d10v5#dbody = 5.087894e-11
m.xm19.msky130_fd_pr__nfet_g5v0d10v5#sbody = 2.853001e-11
m.xm20.msky130_fd_pr__nfet_g5v0d10v5#body = 1.441918e-11
m.xm20.msky130_fd_pr__nfet_g5v0d10v5#dbody = 3.604788e-11
m.xm20.msky130_fd_pr__nfet_g5v0d10v5#sbody = 7.209674e-12
m.xm22.msky130_fd_pr__nfet_g5v0d10v5#body = 1.093201e-11
m.xm22.msky130_fd_pr__nfet_g5v0d10v5#dbody = 2.732993e-11
m.xm22.msky130_fd_pr__nfet_g5v0d10v5#sbody = 5.466117e-12
m.xm24.msky130_fd_pr__pfet_g5v0d10v5#body = 2.300000e+00
m.xm24.msky130_fd_pr__pfet_g5v0d10v5#dbody = 2.300000e+00
m.xm24.msky130_fd_pr__pfet_g5v0d10v5#sbody = 2.300000e+00
m.xm26.msky130_fd_pr__pfet_g5v0d10v5#body = 2.300000e+00
m.xm26.msky130_fd_pr__pfet_g5v0d10v5#dbody = 2.300000e+00
m.xm26.msky130_fd_pr__pfet_g5v0d10v5#sbody = 2.300000e+00
mir = 1.066314e+00
net1 = 6.383714e-01
net2 = 4.686765e-05
net3 = 7.117220e-01
net4 = 1.889932e-01
net5 = 1.081511e+00
net6 = 9.449671e-01
net7 = 7.115859e-01
net8 = 1.166359e+00
net9 = 1.182263e+00
net10 = 1.947724e-01
net11 = 6.964802e-01
net12 = 6.964803e-01
net13 = 0.000000e+00
out = 6.964803e-01
pos = 1.105398e+00
q.xq2.qsky130_fd_pr__pnp_05v5_w0p68l0p68#collcx = 2.930819e-03
q.xq3.qsky130_fd_pr__pnp_05v5_w0p68l0p68#collcx = 3.731638e-04
q.xq4.qsky130_fd_pr__pnp_05v5_w0p68l0p68#collcx = 3.731638e-04
q.xq8.qsky130_fd_pr__pnp_05v5_w0p68l0p68#collcx = 3.731638e-04
q.xq10.qsky130_fd_pr__pnp_05v5_w0p68l0p68#collcx = 3.731638e-04
q.xq12.qsky130_fd_pr__pnp_05v5_w0p68l0p68#collcx = 3.731638e-04
q.xq14.qsky130_fd_pr__pnp_05v5_w0p68l0p68#collcx = 3.731638e-04
q.xq16.qsky130_fd_pr__pnp_05v5_w0p68l0p68#collcx = 3.731638e-04
q.xq18.qsky130_fd_pr__pnp_05v5_w0p68l0p68#collcx = 3.731638e-04
vb = 9.929226e-01
vdd = 2.300000e+00
vs#branch = -1.01102e-01
vt#branch = 0.000000e+00
xc1.a = 0.000000e+00
xc1.b1 = 0.000000e+00
xc3.a = 6.964802e-01
xc3.b1 = 6.964802e-01
xr1.xsky130_fd_pr__res_xhigh_po_0p69.ra = 7.148431e-01
xr2.xsky130_fd_pr__res_xhigh_po_0p69.ra = 7.149792e-01
xr3.xsky130_fd_pr__res_xhigh_po_0p69.ra = 2.006958e-03
xr4.xsky130_fd_pr__res_xhigh_po_0p69.ra = 6.396607e-01
xr5.xsky130_fd_pr__res_xhigh_po_0p69.ra = 2.006552e-03
xr6.xsky130_fd_pr__res_xhigh_po_0p69.ra = 3.447161e-03
xr7.xsky130_fd_pr__res_xhigh_po_0p69.ra = 6.964803e-01
xr8.xsky130_fd_pr__res_xhigh_po_0p69.ra = 1.110632e+00
xr9.xsky130_fd_pr__res_xhigh_po_0p69.ra = 5.403864e-03
Doing analysis at TEMP = 85.000000 and TNOM = 27.000000


No. of Data Rows : 91
Error: no such vector PM
Note: Starting true gmin stepping
Trying gmin =   1.0000E-03 Note: One successful gmin step
Trying gmin =   1.0000E-04 Note: One successful gmin step
Trying gmin =   1.0000E-05 Note: One successful gmin step
Trying gmin =   1.0000E-06 Note: One successful gmin step
Trying gmin =   1.0000E-07 Note: One successful gmin step
Trying gmin =   1.0000E-08 Note: One successful gmin step
Trying gmin =   1.0000E-09 Warning: Further gmin increment
Trying gmin =   5.6234E-09 Note: One successful gmin step
Trying gmin =   2.3714E-09 Note: One successful gmin step
Trying gmin =   1.0000E-09 Note: One successful gmin step
Trying gmin =   6.4938E-10 Note: One successful gmin step
Trying gmin =   3.3982E-10 Note: One successful gmin step
Trying gmin =   1.2864E-10 Note: One successful gmin step
Trying gmin =   2.9961E-11 Note: One successful gmin step
Trying gmin =   3.3678E-12 Note: One successful gmin step
Trying gmin =   1.0000E-12 Note: One successful gmin step
Note: True gmin stepping completed
 Reference value :  1.20000e+00
Error: measure  pm  (AT) : out of interval
 meas ac pm find p when vdb(ldo_out)=0 failed!

Doing analysis at TEMP = 85.000000 and TNOM = 27.000000


No. of Data Rows : 91
psrr100             =  -4.932699e+01
psrr100k            =  -2.122042e+01
Doing analysis at TEMP = 85.000000 and TNOM = 27.000000


No. of Data Rows : 86
temp_coeff = 7.199278e+01
Doing analysis at TEMP = 85.000000 and TNOM = 27.000000


No. of Data Rows : 141
vldo_sup_2          =  1.779839e+00
vldo_sup_2_8        =  1.818191e+00
line_reg = 4.794000e-02
Note: No ".plot", ".print", or ".fourier" lines; no simulations run
vin                 =  1.985229e+00
dropout = 2.212290e-01
