 Reference value :  0.00000e+00
No compatibility mode selected!


Circuit: * ldo netlist 

Doing analysis at TEMP = 85.000000 and TNOM = 27.000000


No. of Data Rows : 1
bg_out = 1.096280e+00
inn = 1.058366e+00
inp = 1.058298e+00
l1#branch = 0.000000e+00
ldo_out = 1.801977e+00
m.xm1.msky130_fd_pr__nfet_g5v0d10v5#body = 2.446873e-11
m.xm1.msky130_fd_pr__nfet_g5v0d10v5#dbody = 4.406496e-11
m.xm1.msky130_fd_pr__nfet_g5v0d10v5#sbody = 2.934124e-11
m.xm2.msky130_fd_pr__pfet_g5v0d10v5#body = 2.100000e+00
m.xm2.msky130_fd_pr__pfet_g5v0d10v5#dbody = 2.100000e+00
m.xm2.msky130_fd_pr__pfet_g5v0d10v5#sbody = 2.100000e+00
m.xm3.msky130_fd_pr__pfet_g5v0d10v5#body = 2.100000e+00
m.xm3.msky130_fd_pr__pfet_g5v0d10v5#dbody = 2.100000e+00
m.xm3.msky130_fd_pr__pfet_g5v0d10v5#sbody = 2.100000e+00
m.xm4.msky130_fd_pr__pfet_g5v0d10v5#body = 2.100000e+00
m.xm4.msky130_fd_pr__pfet_g5v0d10v5#dbody = 2.100000e+00
m.xm4.msky130_fd_pr__pfet_g5v0d10v5#sbody = 2.100000e+00
m.xm5.msky130_fd_pr__pfet_g5v0d10v5#body = 2.100000e+00
m.xm5.msky130_fd_pr__pfet_g5v0d10v5#dbody = 2.100000e+00
m.xm5.msky130_fd_pr__pfet_g5v0d10v5#sbody = 2.100000e+00
m.xm6.msky130_fd_pr__nfet_g5v0d10v5#body = 1.907773e-11
m.xm6.msky130_fd_pr__nfet_g5v0d10v5#dbody = 4.769421e-11
m.xm6.msky130_fd_pr__nfet_g5v0d10v5#sbody = 9.538974e-12
m.xm7.msky130_fd_pr__pfet_g5v0d10v5#body = 2.100000e+00
m.xm7.msky130_fd_pr__pfet_g5v0d10v5#dbody = 2.100000e+00
m.xm7.msky130_fd_pr__pfet_g5v0d10v5#sbody = 2.100000e+00
m.xm8.msky130_fd_pr__pfet_g5v0d10v5#body = 2.100000e+00
m.xm8.msky130_fd_pr__pfet_g5v0d10v5#dbody = 2.100000e+00
m.xm8.msky130_fd_pr__pfet_g5v0d10v5#sbody = 2.100000e+00
m.xm9.msky130_fd_pr__nfet_g5v0d10v5#body = 2.262582e-11
m.xm9.msky130_fd_pr__nfet_g5v0d10v5#dbody = 4.240125e-11
m.xm9.msky130_fd_pr__nfet_g5v0d10v5#sbody = 2.547623e-11
m.xm10.msky130_fd_pr__nfet_g5v0d10v5#body = 2.237746e-11
m.xm10.msky130_fd_pr__nfet_g5v0d10v5#dbody = 4.178034e-11
m.xm10.msky130_fd_pr__nfet_g5v0d10v5#sbody = 2.535205e-11
m.xm11.msky130_fd_pr__pfet_g5v0d10v5#body = 2.100000e+00
m.xm11.msky130_fd_pr__pfet_g5v0d10v5#dbody = 2.100000e+00
m.xm11.msky130_fd_pr__pfet_g5v0d10v5#sbody = 2.100000e+00
m.xm12.msky130_fd_pr__pfet_g5v0d10v5#body = 2.100000e+00
m.xm12.msky130_fd_pr__pfet_g5v0d10v5#dbody = 2.100000e+00
m.xm12.msky130_fd_pr__pfet_g5v0d10v5#sbody = 2.100000e+00
m.xm13.msky130_fd_pr__nfet_g5v0d10v5#body = 5.434281e-12
m.xm13.msky130_fd_pr__nfet_g5v0d10v5#dbody = 1.358564e-11
m.xm13.msky130_fd_pr__nfet_g5v0d10v5#sbody = 2.717206e-12
m.xm14.msky130_fd_pr__pfet_g5v0d10v5#body = 2.100000e+00
m.xm14.msky130_fd_pr__pfet_g5v0d10v5#dbody = 2.100000e+00
m.xm14.msky130_fd_pr__pfet_g5v0d10v5#sbody = 2.100000e+00
m.xm15.msky130_fd_pr__nfet_g5v0d10v5#body = 2.065489e-15
m.xm15.msky130_fd_pr__nfet_g5v0d10v5#dbody = 5.163579e-15
m.xm15.msky130_fd_pr__nfet_g5v0d10v5#sbody = 1.032889e-15
m.xm16.msky130_fd_pr__nfet_g5v0d10v5#body = 4.995995e-11
m.xm16.msky130_fd_pr__nfet_g5v0d10v5#dbody = 8.796035e-11
m.xm16.msky130_fd_pr__nfet_g5v0d10v5#sbody = 6.191951e-11
m.xm17.msky130_fd_pr__pfet_g5v0d10v5#body = 2.100000e+00
m.xm17.msky130_fd_pr__pfet_g5v0d10v5#dbody = 2.100000e+00
m.xm17.msky130_fd_pr__pfet_g5v0d10v5#sbody = 2.100000e+00
m.xm18.msky130_fd_pr__nfet_g5v0d10v5#body = 1.843921e-11
m.xm18.msky130_fd_pr__nfet_g5v0d10v5#dbody = 4.609781e-11
m.xm18.msky130_fd_pr__nfet_g5v0d10v5#sbody = 9.219683e-12
m.xm19.msky130_fd_pr__nfet_g5v0d10v5#body = 2.454435e-11
m.xm19.msky130_fd_pr__nfet_g5v0d10v5#dbody = 4.425401e-11
m.xm19.msky130_fd_pr__nfet_g5v0d10v5#sbody = 2.937905e-11
m.xm20.msky130_fd_pr__nfet_g5v0d10v5#body = 1.235331e-11
m.xm20.msky130_fd_pr__nfet_g5v0d10v5#dbody = 3.088321e-11
m.xm20.msky130_fd_pr__nfet_g5v0d10v5#sbody = 6.176730e-12
m.xm22.msky130_fd_pr__nfet_g5v0d10v5#body = 1.184790e-11
m.xm22.msky130_fd_pr__nfet_g5v0d10v5#dbody = 2.961965e-11
m.xm22.msky130_fd_pr__nfet_g5v0d10v5#sbody = 5.924057e-12
m.xm24.msky130_fd_pr__pfet_g5v0d10v5#body = 2.100000e+00
m.xm24.msky130_fd_pr__pfet_g5v0d10v5#dbody = 2.100000e+00
m.xm24.msky130_fd_pr__pfet_g5v0d10v5#sbody = 2.100000e+00
m.xm26.msky130_fd_pr__pfet_g5v0d10v5#body = 2.100000e+00
m.xm26.msky130_fd_pr__pfet_g5v0d10v5#dbody = 2.100000e+00
m.xm26.msky130_fd_pr__pfet_g5v0d10v5#sbody = 2.100000e+00
mir = 8.540090e-01
net1 = 6.283597e-01
net2 = 3.995118e-06
net3 = 7.016333e-01
net4 = 2.652039e-01
net5 = 8.600585e-01
net6 = 8.433552e-01
net7 = 7.015639e-01
net8 = 9.362714e-01
net9 = 9.561405e-01
net10 = 2.792043e-01
net11 = 1.319557e+00
net12 = 1.319557e+00
net13 = 0.000000e+00
out = 1.319557e+00
pos = 1.096546e+00
q.xq2.qsky130_fd_pr__pnp_05v5_w0p68l0p68#collcx = 2.837441e-03
q.xq3.qsky130_fd_pr__pnp_05v5_w0p68l0p68#collcx = 3.579840e-04
q.xq4.qsky130_fd_pr__pnp_05v5_w0p68l0p68#collcx = 3.579840e-04
q.xq8.qsky130_fd_pr__pnp_05v5_w0p68l0p68#collcx = 3.579840e-04
q.xq10.qsky130_fd_pr__pnp_05v5_w0p68l0p68#collcx = 3.579840e-04
q.xq12.qsky130_fd_pr__pnp_05v5_w0p68l0p68#collcx = 3.579840e-04
q.xq14.qsky130_fd_pr__pnp_05v5_w0p68l0p68#collcx = 3.579840e-04
q.xq16.qsky130_fd_pr__pnp_05v5_w0p68l0p68#collcx = 3.579840e-04
q.xq18.qsky130_fd_pr__pnp_05v5_w0p68l0p68#collcx = 3.579840e-04
vb = 8.326915e-01
vdd = 2.100000e+00
vs#branch = -1.83427e-04
vt#branch = 0.000000e+00
xc1.a = 0.000000e+00
xc1.b1 = 0.000000e+00
xc3.a = 1.319557e+00
xc3.b1 = 1.319557e+00
xr1.xsky130_fd_pr__res_xhigh_po_0p69.ra = 7.099856e-01
xr2.xsky130_fd_pr__res_xhigh_po_0p69.ra = 7.100550e-01
xr3.xsky130_fd_pr__res_xhigh_po_0p69.ra = 5.152478e-03
xr4.xsky130_fd_pr__res_xhigh_po_0p69.ra = 6.317259e-01
xr5.xsky130_fd_pr__res_xhigh_po_0p69.ra = 5.151939e-03
xr6.xsky130_fd_pr__res_xhigh_po_0p69.ra = 8.905247e-03
xr7.xsky130_fd_pr__res_xhigh_po_0p69.ra = 1.319557e+00
xr8.xsky130_fd_pr__res_xhigh_po_0p69.ra = 1.110079e+00
xr9.xsky130_fd_pr__res_xhigh_po_0p69.ra = 1.397052e-02
Doing analysis at TEMP = 85.000000 and TNOM = 27.000000


No. of Data Rows : 91
Note: Starting true gmin stepping
Trying gmin =   1.0000E-03 Note: One successful gmin step
Trying gmin =   1.0000E-04 Note: One successful gmin step
Trying gmin =   1.0000E-05 Note: One successful gmin step
Trying gmin =   1.0000E-06 Note: One successful gmin step
Trying gmin =   1.0000E-07 Note: One successful gmin step
Trying gmin =   1.0000E-08 Warning: Further gmin increment
Trying gmin =   5.6234E-08 Warning: Further gmin increment
Trying gmin =   8.6596E-08 Note: One successful gmin step
Trying gmin =   7.4989E-08 Note: One successful gmin step
Trying gmin =   6.0430E-08 Note: One successful gmin step
Trying gmin =   4.3714E-08 Note: One successful gmin step
Trying gmin =   2.6896E-08 Note: One successful gmin step
Trying gmin =   1.2980E-08 Note: One successful gmin step
Trying gmin =   4.3518E-09 Note: One successful gmin step
Trying gmin =   8.4481E-10 Note: One successful gmin step
Trying gmin =   8.4481E-11 Note: One successful gmin step
Trying gmin =   8.4481E-12 Note: One successful gmin step
Trying gmin =   1.0000E-12 Note: One successful gmin step
Note: True gmin stepping completed
 Reference value :  1.40000e+00Note: Starting true gmin stepping
Trying gmin =   1.0000E-03 Note: One successful gmin step
Trying gmin =   1.0000E-04 Note: One successful gmin step
Trying gmin =   1.0000E-05 Note: One successful gmin step
Trying gmin =   1.0000E-06 Note: One successful gmin step
Trying gmin =   1.0000E-07 Note: One successful gmin step
Trying gmin =   1.0000E-08 Warning: Further gmin increment
Trying gmin =   5.6234E-08 Note: One successful gmin step
Trying gmin =   2.3714E-08 Warning: Further gmin increment
Trying gmin =   4.5316E-08 Note: One successful gmin step
Trying gmin =   3.2781E-08 Note: One successful gmin step
Trying gmin =   2.0169E-08 Note: One successful gmin step
Trying gmin =   9.7338E-09 Note: One successful gmin step
Trying gmin =   3.2634E-09 Note: One successful gmin step
Trying gmin =   6.3352E-10 Note: One successful gmin step
Trying gmin =   6.3352E-11 Note: One successful gmin step
Trying gmin =   6.3352E-12 Note: One successful gmin step
Trying gmin =   1.0000E-12 Note: One successful gmin step
Note: True gmin stepping completed
Note: Starting true gmin stepping
Trying gmin =   1.0000E-03 Note: One successful gmin step
Trying gmin =   1.0000E-04 Note: One successful gmin step
Trying gmin =   1.0000E-05 Note: One successful gmin step
Trying gmin =   1.0000E-06 Note: One successful gmin step
Trying gmin =   1.0000E-07 Note: One successful gmin step
Trying gmin =   1.0000E-08 Note: One successful gmin step
Trying gmin =   1.0000E-09 Warning: Further gmin increment
Trying gmin =   5.6234E-09 Note: One successful gmin step
Trying gmin =   2.3714E-09 Warning: Further gmin increment
Trying gmin =   4.5316E-09 Note: One successful gmin step
Trying gmin =   3.2781E-09 Note: One successful gmin step
Trying gmin =   2.0169E-09 Note: One successful gmin step
Trying gmin =   9.7338E-10 Note: One successful gmin step
Trying gmin =   3.2634E-10 Note: One successful gmin step
Trying gmin =   6.3352E-11 Note: One successful gmin step
Trying gmin =   6.3352E-12 Note: One successful gmin step
Trying gmin =   1.0000E-12 Note: One successful gmin step
Note: True gmin stepping completed
 Reference value :  1.00000e+00pm                  =  6.397143e+01
Doing analysis at TEMP = 85.000000 and TNOM = 27.000000


No. of Data Rows : 91
psrr100             =  -4.880104e+01
psrr100k            =  -2.675286e+01
Doing analysis at TEMP = 85.000000 and TNOM = 27.000000


No. of Data Rows : 86
temp_coeff = 3.279255e+01
Doing analysis at TEMP = 85.000000 and TNOM = 27.000000


No. of Data Rows : 141
vldo_sup_2          =  1.801552e+00
vldo_sup_2_8        =  1.803336e+00
line_reg = 2.230000e-03
Note: No ".plot", ".print", or ".fourier" lines; no simulations run
vin                 =  1.764174e+00
dropout = 1.740000e-04
