 Reference value :  0.00000e+00
No compatibility mode selected!


Circuit: * ldo netlist 

Doing analysis at TEMP = 27.000000 and TNOM = 27.000000


No. of Data Rows : 1
bg_out = 1.099017e+00
inn = 1.144388e+00
inp = 1.144366e+00
l1#branch = 0.000000e+00
ldo_out = 1.806912e+00
m.xm1.msky130_fd_pr__nfet_g5v0d10v5#body = 1.818458e-11
m.xm1.msky130_fd_pr__nfet_g5v0d10v5#dbody = 3.851206e-11
m.xm1.msky130_fd_pr__nfet_g5v0d10v5#sbody = 1.604168e-11
m.xm2.msky130_fd_pr__pfet_g5v0d10v5#body = 2.500000e+00
m.xm2.msky130_fd_pr__pfet_g5v0d10v5#dbody = 2.500000e+00
m.xm2.msky130_fd_pr__pfet_g5v0d10v5#sbody = 2.500000e+00
m.xm3.msky130_fd_pr__pfet_g5v0d10v5#body = 2.500000e+00
m.xm3.msky130_fd_pr__pfet_g5v0d10v5#dbody = 2.500000e+00
m.xm3.msky130_fd_pr__pfet_g5v0d10v5#sbody = 2.500000e+00
m.xm4.msky130_fd_pr__pfet_g5v0d10v5#body = 2.500000e+00
m.xm4.msky130_fd_pr__pfet_g5v0d10v5#dbody = 2.500000e+00
m.xm4.msky130_fd_pr__pfet_g5v0d10v5#sbody = 2.500000e+00
m.xm5.msky130_fd_pr__pfet_g5v0d10v5#body = 2.500000e+00
m.xm5.msky130_fd_pr__pfet_g5v0d10v5#dbody = 2.500000e+00
m.xm5.msky130_fd_pr__pfet_g5v0d10v5#sbody = 2.500000e+00
m.xm6.msky130_fd_pr__nfet_g5v0d10v5#body = 1.119784e-11
m.xm6.msky130_fd_pr__nfet_g5v0d10v5#dbody = 2.799460e-11
m.xm6.msky130_fd_pr__nfet_g5v0d10v5#sbody = 5.598926e-12
m.xm7.msky130_fd_pr__pfet_g5v0d10v5#body = 2.500000e+00
m.xm7.msky130_fd_pr__pfet_g5v0d10v5#dbody = 2.500000e+00
m.xm7.msky130_fd_pr__pfet_g5v0d10v5#sbody = 2.500000e+00
m.xm8.msky130_fd_pr__pfet_g5v0d10v5#body = 2.500000e+00
m.xm8.msky130_fd_pr__pfet_g5v0d10v5#dbody = 2.500000e+00
m.xm8.msky130_fd_pr__pfet_g5v0d10v5#sbody = 2.500000e+00
m.xm9.msky130_fd_pr__nfet_g5v0d10v5#body = 1.881270e-11
m.xm9.msky130_fd_pr__nfet_g5v0d10v5#dbody = 4.120199e-11
m.xm9.msky130_fd_pr__nfet_g5v0d10v5#sbody = 1.523610e-11
m.xm10.msky130_fd_pr__nfet_g5v0d10v5#body = 1.858942e-11
m.xm10.msky130_fd_pr__nfet_g5v0d10v5#dbody = 4.064381e-11
m.xm10.msky130_fd_pr__nfet_g5v0d10v5#sbody = 1.512446e-11
m.xm11.msky130_fd_pr__pfet_g5v0d10v5#body = 2.500000e+00
m.xm11.msky130_fd_pr__pfet_g5v0d10v5#dbody = 2.500000e+00
m.xm11.msky130_fd_pr__pfet_g5v0d10v5#sbody = 2.500000e+00
m.xm12.msky130_fd_pr__pfet_g5v0d10v5#body = 2.500000e+00
m.xm12.msky130_fd_pr__pfet_g5v0d10v5#dbody = 2.500000e+00
m.xm12.msky130_fd_pr__pfet_g5v0d10v5#sbody = 2.500000e+00
m.xm13.msky130_fd_pr__nfet_g5v0d10v5#body = 2.913517e-12
m.xm13.msky130_fd_pr__nfet_g5v0d10v5#dbody = 7.283782e-12
m.xm13.msky130_fd_pr__nfet_g5v0d10v5#sbody = 1.456770e-12
m.xm14.msky130_fd_pr__pfet_g5v0d10v5#body = 2.500000e+00
m.xm14.msky130_fd_pr__pfet_g5v0d10v5#dbody = 2.500000e+00
m.xm14.msky130_fd_pr__pfet_g5v0d10v5#sbody = 2.500000e+00
m.xm15.msky130_fd_pr__nfet_g5v0d10v5#body = 4.704139e-16
m.xm15.msky130_fd_pr__nfet_g5v0d10v5#dbody = 1.175998e-15
m.xm15.msky130_fd_pr__nfet_g5v0d10v5#sbody = 2.352435e-16
m.xm16.msky130_fd_pr__nfet_g5v0d10v5#body = 4.556349e-11
m.xm16.msky130_fd_pr__nfet_g5v0d10v5#dbody = 8.529037e-11
m.xm16.msky130_fd_pr__nfet_g5v0d10v5#sbody = 5.140008e-11
m.xm17.msky130_fd_pr__pfet_g5v0d10v5#body = 2.500000e+00
m.xm17.msky130_fd_pr__pfet_g5v0d10v5#dbody = 2.500000e+00
m.xm17.msky130_fd_pr__pfet_g5v0d10v5#sbody = 2.500000e+00
m.xm18.msky130_fd_pr__nfet_g5v0d10v5#body = 1.631808e-11
m.xm18.msky130_fd_pr__nfet_g5v0d10v5#dbody = 4.079500e-11
m.xm18.msky130_fd_pr__nfet_g5v0d10v5#sbody = 8.159055e-12
m.xm19.msky130_fd_pr__nfet_g5v0d10v5#body = 1.822198e-11
m.xm19.msky130_fd_pr__nfet_g5v0d10v5#dbody = 3.860556e-11
m.xm19.msky130_fd_pr__nfet_g5v0d10v5#sbody = 1.606038e-11
m.xm20.msky130_fd_pr__nfet_g5v0d10v5#body = 1.111270e-11
m.xm20.msky130_fd_pr__nfet_g5v0d10v5#dbody = 2.778174e-11
m.xm20.msky130_fd_pr__nfet_g5v0d10v5#sbody = 5.556365e-12
m.xm22.msky130_fd_pr__nfet_g5v0d10v5#body = 3.477408e-12
m.xm22.msky130_fd_pr__nfet_g5v0d10v5#dbody = 8.693514e-12
m.xm22.msky130_fd_pr__nfet_g5v0d10v5#sbody = 1.738709e-12
m.xm24.msky130_fd_pr__pfet_g5v0d10v5#body = 2.500000e+00
m.xm24.msky130_fd_pr__pfet_g5v0d10v5#dbody = 2.500000e+00
m.xm24.msky130_fd_pr__pfet_g5v0d10v5#sbody = 2.500000e+00
m.xm26.msky130_fd_pr__pfet_g5v0d10v5#body = 2.500000e+00
m.xm26.msky130_fd_pr__pfet_g5v0d10v5#dbody = 2.500000e+00
m.xm26.msky130_fd_pr__pfet_g5v0d10v5#sbody = 2.500000e+00
mir = 1.176446e+00
net1 = 7.274609e-01
net2 = 3.619839e-05
net3 = 7.873270e-01
net4 = 2.776303e-01
net5 = 1.179438e+00
net6 = 8.952650e-01
net7 = 7.873041e-01
net8 = 1.253727e+00
net9 = 1.271589e+00
net10 = 2.329533e-01
net11 = 1.305311e+00
net12 = 1.305311e+00
net13 = 0.000000e+00
out = 1.305311e+00
pos = 1.099179e+00
q.xq2.qsky130_fd_pr__pnp_05v5_w0p68l0p68#collcx = 2.277939e-03
q.xq3.qsky130_fd_pr__pnp_05v5_w0p68l0p68#collcx = 2.870715e-04
q.xq4.qsky130_fd_pr__pnp_05v5_w0p68l0p68#collcx = 2.870715e-04
q.xq8.qsky130_fd_pr__pnp_05v5_w0p68l0p68#collcx = 2.870715e-04
q.xq10.qsky130_fd_pr__pnp_05v5_w0p68l0p68#collcx = 2.870715e-04
q.xq12.qsky130_fd_pr__pnp_05v5_w0p68l0p68#collcx = 2.870715e-04
q.xq14.qsky130_fd_pr__pnp_05v5_w0p68l0p68#collcx = 2.870715e-04
q.xq16.qsky130_fd_pr__pnp_05v5_w0p68l0p68#collcx = 2.870715e-04
q.xq18.qsky130_fd_pr__pnp_05v5_w0p68l0p68#collcx = 2.870715e-04
vb = 8.888880e-01
vdd = 2.500000e+00
vs#branch = -1.01724e-02
vt#branch = 0.000000e+00
xc1.a = 0.000000e+00
xc1.b1 = 0.000000e+00
xc3.a = 1.305311e+00
xc3.b1 = 1.305311e+00
xr1.xsky130_fd_pr__res_xhigh_po_0p69.ra = 7.902869e-01
xr2.xsky130_fd_pr__res_xhigh_po_0p69.ra = 7.903099e-01
xr3.xsky130_fd_pr__res_xhigh_po_0p69.ra = 2.064447e-03
xr4.xsky130_fd_pr__res_xhigh_po_0p69.ra = 7.284358e-01
xr5.xsky130_fd_pr__res_xhigh_po_0p69.ra = 2.064383e-03
xr6.xsky130_fd_pr__res_xhigh_po_0p69.ra = 3.165917e-03
xr7.xsky130_fd_pr__res_xhigh_po_0p69.ra = 1.305311e+00
xr8.xsky130_fd_pr__res_xhigh_po_0p69.ra = 1.103987e+00
xr9.xsky130_fd_pr__res_xhigh_po_0p69.ra = 4.963579e-03
Doing analysis at TEMP = 27.000000 and TNOM = 27.000000


No. of Data Rows : 91
Error: no such vector PM
Note: Starting true gmin stepping
Trying gmin =   1.0000E-03 Note: One successful gmin step
Trying gmin =   1.0000E-04 Note: One successful gmin step
Trying gmin =   1.0000E-05 Note: One successful gmin step
Trying gmin =   1.0000E-06 Note: One successful gmin step
Trying gmin =   1.0000E-07 Note: One successful gmin step
Trying gmin =   1.0000E-08 Warning: Further gmin increment
Trying gmin =   5.6234E-08 Note: One successful gmin step
Trying gmin =   2.3714E-08 Warning: Further gmin increment
Trying gmin =   4.5316E-08 Note: One successful gmin step
Trying gmin =   3.2781E-08 Warning: Further gmin increment
Trying gmin =   4.1792E-08 Note: One successful gmin step
Trying gmin =   3.7013E-08 Warning: Further gmin increment
Trying gmin =   4.0542E-08 Note: One successful gmin step
Trying gmin =   3.8738E-08 Note: One successful gmin step
Trying gmin =   3.6180E-08 Note: One successful gmin step
Trying gmin =   3.2657E-08 Note: One successful gmin step
Trying gmin =   2.8005E-08 Note: One successful gmin step
Trying gmin =   2.2239E-08 Note: One successful gmin step
Trying gmin =   1.5738E-08 Note: One successful gmin step
Trying gmin =   9.3691E-09 Note: One successful gmin step
Trying gmin =   4.3035E-09 Note: One successful gmin step
Trying gmin =   1.3397E-09 Note: One successful gmin step
Trying gmin =   2.3268E-10 Note: One successful gmin step
Trying gmin =   2.3268E-11 Note: One successful gmin step
Trying gmin =   2.3268E-12 Note: One successful gmin step
Trying gmin =   1.0000E-12 Note: One successful gmin step
Note: True gmin stepping completed
 Reference value :  1.50000e+00Note: Starting true gmin stepping
Trying gmin =   1.0000E-03 Note: One successful gmin step
Trying gmin =   1.0000E-04 Note: One successful gmin step
Trying gmin =   1.0000E-05 Note: One successful gmin step
Trying gmin =   1.0000E-06 Note: One successful gmin step
Trying gmin =   1.0000E-07 Note: One successful gmin step
Trying gmin =   1.0000E-08 Warning: Further gmin increment
Trying gmin =   5.6234E-08 Note: One successful gmin step
Trying gmin =   2.3714E-08 Warning: Further gmin increment
Trying gmin =   4.5316E-08 Note: One successful gmin step
Trying gmin =   3.2781E-08 Warning: Further gmin increment
Trying gmin =   4.1792E-08 Note: One successful gmin step
Trying gmin =   3.7013E-08 Note: One successful gmin step
Trying gmin =   3.0850E-08 Note: One successful gmin step
Trying gmin =   2.3475E-08 Note: One successful gmin step
Trying gmin =   1.5582E-08 Note: One successful gmin step
Trying gmin =   8.4267E-09 Note: One successful gmin step
Trying gmin =   3.3513E-09 Note: One successful gmin step
Trying gmin =   8.4049E-10 Note: One successful gmin step
Trying gmin =   1.0556E-10 Note: One successful gmin step
Trying gmin =   1.0556E-11 Note: One successful gmin step
Trying gmin =   1.0556E-12 Note: One successful gmin step
Trying gmin =   1.0000E-12 Note: One successful gmin step
Note: True gmin stepping completed
 Reference value :  3.60000e-01
Error: measure  pm  (AT) : out of interval
 meas ac pm find p when vdb(ldo_out)=0 failed!

Doing analysis at TEMP = 27.000000 and TNOM = 27.000000


No. of Data Rows : 91
psrr100             =  -7.546367e+01
psrr100k            =  -2.635494e+01
Doing analysis at TEMP = 27.000000 and TNOM = 27.000000


No. of Data Rows : 86
temp_coeff = 7.507250e+01
Doing analysis at TEMP = 27.000000 and TNOM = 27.000000


No. of Data Rows : 141
vldo_sup_2          =  1.806836e+00
vldo_sup_2_8        =  1.806874e+00
line_reg = 4.750000e-05
Note: No ".plot", ".print", or ".fourier" lines; no simulations run
vin                 =  1.786371e+00
dropout = 2.237100e-02
