 Reference value :  0.00000e+00
No compatibility mode selected!


Circuit: * ldo netlist 

Doing analysis at TEMP = 27.000000 and TNOM = 27.000000


No. of Data Rows : 1
bg_out = 1.194133e+00
inn = 1.224954e+00
inp = 1.224944e+00
l1#branch = 6.938894e-18
ldo_out = 1.796132e+00
m.xm1.msky130_fd_pr__nfet_g5v0d10v5#body = 1.910688e-11
m.xm1.msky130_fd_pr__nfet_g5v0d10v5#dbody = 3.922795e-11
m.xm1.msky130_fd_pr__nfet_g5v0d10v5#sbody = 1.809268e-11
m.xm2.msky130_fd_pr__pfet_g5v0d10v5#body = 2.500000e+00
m.xm2.msky130_fd_pr__pfet_g5v0d10v5#dbody = 2.500000e+00
m.xm2.msky130_fd_pr__pfet_g5v0d10v5#sbody = 2.500000e+00
m.xm3.msky130_fd_pr__pfet_g5v0d10v5#body = 2.500000e+00
m.xm3.msky130_fd_pr__pfet_g5v0d10v5#dbody = 2.500000e+00
m.xm3.msky130_fd_pr__pfet_g5v0d10v5#sbody = 2.500000e+00
m.xm4.msky130_fd_pr__pfet_g5v0d10v5#body = 2.500000e+00
m.xm4.msky130_fd_pr__pfet_g5v0d10v5#dbody = 2.500000e+00
m.xm4.msky130_fd_pr__pfet_g5v0d10v5#sbody = 2.500000e+00
m.xm5.msky130_fd_pr__pfet_g5v0d10v5#body = 2.500000e+00
m.xm5.msky130_fd_pr__pfet_g5v0d10v5#dbody = 2.500000e+00
m.xm5.msky130_fd_pr__pfet_g5v0d10v5#sbody = 2.500000e+00
m.xm6.msky130_fd_pr__nfet_g5v0d10v5#body = 1.111682e-11
m.xm6.msky130_fd_pr__nfet_g5v0d10v5#dbody = 2.779204e-11
m.xm6.msky130_fd_pr__nfet_g5v0d10v5#sbody = 5.558415e-12
m.xm7.msky130_fd_pr__pfet_g5v0d10v5#body = 2.500000e+00
m.xm7.msky130_fd_pr__pfet_g5v0d10v5#dbody = 2.500000e+00
m.xm7.msky130_fd_pr__pfet_g5v0d10v5#sbody = 2.500000e+00
m.xm8.msky130_fd_pr__pfet_g5v0d10v5#body = 2.500000e+00
m.xm8.msky130_fd_pr__pfet_g5v0d10v5#dbody = 2.500000e+00
m.xm8.msky130_fd_pr__pfet_g5v0d10v5#sbody = 2.500000e+00
m.xm9.msky130_fd_pr__nfet_g5v0d10v5#body = 1.976748e-11
m.xm9.msky130_fd_pr__nfet_g5v0d10v5#dbody = 4.175810e-11
m.xm9.msky130_fd_pr__nfet_g5v0d10v5#sbody = 1.754435e-11
m.xm10.msky130_fd_pr__nfet_g5v0d10v5#body = 1.967517e-11
m.xm10.msky130_fd_pr__nfet_g5v0d10v5#dbody = 4.152730e-11
m.xm10.msky130_fd_pr__nfet_g5v0d10v5#sbody = 1.749819e-11
m.xm11.msky130_fd_pr__pfet_g5v0d10v5#body = 2.500000e+00
m.xm11.msky130_fd_pr__pfet_g5v0d10v5#dbody = 2.500000e+00
m.xm11.msky130_fd_pr__pfet_g5v0d10v5#sbody = 2.500000e+00
m.xm12.msky130_fd_pr__pfet_g5v0d10v5#body = 2.500000e+00
m.xm12.msky130_fd_pr__pfet_g5v0d10v5#dbody = 2.500000e+00
m.xm12.msky130_fd_pr__pfet_g5v0d10v5#sbody = 2.500000e+00
m.xm13.msky130_fd_pr__nfet_g5v0d10v5#body = 3.828947e-12
m.xm13.msky130_fd_pr__nfet_g5v0d10v5#dbody = 9.572357e-12
m.xm13.msky130_fd_pr__nfet_g5v0d10v5#sbody = 1.914485e-12
m.xm14.msky130_fd_pr__pfet_g5v0d10v5#body = 2.500000e+00
m.xm14.msky130_fd_pr__pfet_g5v0d10v5#dbody = 2.500000e+00
m.xm14.msky130_fd_pr__pfet_g5v0d10v5#sbody = 2.500000e+00
m.xm15.msky130_fd_pr__nfet_g5v0d10v5#body = 2.327787e-16
m.xm15.msky130_fd_pr__nfet_g5v0d10v5#dbody = 5.819244e-16
m.xm15.msky130_fd_pr__nfet_g5v0d10v5#sbody = 1.164117e-16
m.xm16.msky130_fd_pr__nfet_g5v0d10v5#body = 4.657056e-11
m.xm16.msky130_fd_pr__nfet_g5v0d10v5#dbody = 8.579391e-11
m.xm16.msky130_fd_pr__nfet_g5v0d10v5#sbody = 5.391776e-11
m.xm17.msky130_fd_pr__pfet_g5v0d10v5#body = 2.500000e+00
m.xm17.msky130_fd_pr__pfet_g5v0d10v5#dbody = 2.500000e+00
m.xm17.msky130_fd_pr__pfet_g5v0d10v5#sbody = 2.500000e+00
m.xm18.msky130_fd_pr__nfet_g5v0d10v5#body = 1.094303e-11
m.xm18.msky130_fd_pr__nfet_g5v0d10v5#dbody = 2.735756e-11
m.xm18.msky130_fd_pr__nfet_g5v0d10v5#sbody = 5.471526e-12
m.xm19.msky130_fd_pr__nfet_g5v0d10v5#body = 1.912222e-11
m.xm19.msky130_fd_pr__nfet_g5v0d10v5#dbody = 3.926631e-11
m.xm19.msky130_fd_pr__nfet_g5v0d10v5#sbody = 1.810035e-11
m.xm20.msky130_fd_pr__nfet_g5v0d10v5#body = 1.103317e-11
m.xm20.msky130_fd_pr__nfet_g5v0d10v5#dbody = 2.758292e-11
m.xm20.msky130_fd_pr__nfet_g5v0d10v5#sbody = 5.516599e-12
m.xm22.msky130_fd_pr__nfet_g5v0d10v5#body = 4.272333e-12
m.xm22.msky130_fd_pr__nfet_g5v0d10v5#dbody = 1.068083e-11
m.xm22.msky130_fd_pr__nfet_g5v0d10v5#sbody = 2.136171e-12
m.xm24.msky130_fd_pr__pfet_g5v0d10v5#body = 2.500000e+00
m.xm24.msky130_fd_pr__pfet_g5v0d10v5#dbody = 2.500000e+00
m.xm24.msky130_fd_pr__pfet_g5v0d10v5#sbody = 2.500000e+00
m.xm26.msky130_fd_pr__pfet_g5v0d10v5#body = 2.500000e+00
m.xm26.msky130_fd_pr__pfet_g5v0d10v5#dbody = 2.500000e+00
m.xm26.msky130_fd_pr__pfet_g5v0d10v5#sbody = 2.500000e+00
mir = 1.186635e+00
net1 = 7.262786e-01
net2 = 1.791212e-05
net3 = 7.859823e-01
net4 = 3.412243e-01
net5 = 1.187863e+00
net6 = 8.887832e-01
net7 = 7.859724e-01
net8 = 1.267352e+00
net9 = 1.274738e+00
net10 = 3.061876e-01
net11 = 8.753140e-01
net12 = 8.753140e-01
net13 = 0.000000e+00
out = 8.753140e-01
pos = 1.194202e+00
q.xq2.qsky130_fd_pr__pnp_05v5_w0p68l0p68#collcx = 2.182790e-03
q.xq3.qsky130_fd_pr__pnp_05v5_w0p68l0p68#collcx = 2.749600e-04
q.xq4.qsky130_fd_pr__pnp_05v5_w0p68l0p68#collcx = 2.749600e-04
q.xq8.qsky130_fd_pr__pnp_05v5_w0p68l0p68#collcx = 2.749600e-04
q.xq10.qsky130_fd_pr__pnp_05v5_w0p68l0p68#collcx = 2.749600e-04
q.xq12.qsky130_fd_pr__pnp_05v5_w0p68l0p68#collcx = 2.749600e-04
q.xq14.qsky130_fd_pr__pnp_05v5_w0p68l0p68#collcx = 2.749600e-04
q.xq16.qsky130_fd_pr__pnp_05v5_w0p68l0p68#collcx = 2.749600e-04
q.xq18.qsky130_fd_pr__pnp_05v5_w0p68l0p68#collcx = 2.749600e-04
vb = 8.825257e-01
vdd = 2.500000e+00
vs#branch = -9.99116e-02
vt#branch = 0.000000e+00
xc1.a = 0.000000e+00
xc1.b1 = 0.000000e+00
xc3.a = 8.753140e-01
xc3.b1 = 8.753140e-01
xr1.xsky130_fd_pr__res_xhigh_po_0p69.ra = 7.912989e-01
xr2.xsky130_fd_pr__res_xhigh_po_0p69.ra = 7.913088e-01
xr3.xsky130_fd_pr__res_xhigh_po_0p69.ra = 3.606174e-03
xr4.xsky130_fd_pr__res_xhigh_po_0p69.ra = 7.280685e-01
xr5.xsky130_fd_pr__res_xhigh_po_0p69.ra = 3.606126e-03
xr6.xsky130_fd_pr__res_xhigh_po_0p69.ra = 5.661463e-03
xr7.xsky130_fd_pr__res_xhigh_po_0p69.ra = 8.753140e-01
xr8.xsky130_fd_pr__res_xhigh_po_0p69.ra = 1.203617e+00
xr9.xsky130_fd_pr__res_xhigh_po_0p69.ra = 9.873079e-03
Doing analysis at TEMP = 27.000000 and TNOM = 27.000000


No. of Data Rows : 91
Note: Starting true gmin stepping
Trying gmin =   1.0000E-03 Note: One successful gmin step
Trying gmin =   1.0000E-04 Note: One successful gmin step
Trying gmin =   1.0000E-05 Note: One successful gmin step
Trying gmin =   1.0000E-06 Note: One successful gmin step
Trying gmin =   1.0000E-07 Note: One successful gmin step
Trying gmin =   1.0000E-08 Note: One successful gmin step
Trying gmin =   3.1623E-09 Note: One successful gmin step
Trying gmin =   5.6234E-10 Note: One successful gmin step
Trying gmin =   5.6234E-11 Note: One successful gmin step
Trying gmin =   5.6234E-12 Note: One successful gmin step
Trying gmin =   1.0000E-12 Note: One successful gmin step
Note: True gmin stepping completed
 Reference value :  1.38000e+00pm                  =  4.434305e+01
Doing analysis at TEMP = 27.000000 and TNOM = 27.000000


No. of Data Rows : 91
psrr100             =  -7.927387e+01
psrr100k            =  -2.609143e+01
Doing analysis at TEMP = 27.000000 and TNOM = 27.000000


No. of Data Rows : 86
temp_coeff = 1.438468e+02
Doing analysis at TEMP = 27.000000 and TNOM = 27.000000


No. of Data Rows : 141
vldo_sup_2          =  1.790411e+00
vldo_sup_2_8        =  1.796154e+00
line_reg = 7.178750e-03
Note: No ".plot", ".print", or ".fourier" lines; no simulations run
vin                 =  1.976016e+00
dropout = 2.120160e-01
