 Reference value :  0.00000e+00
No compatibility mode selected!


Circuit: * ldo netlist 

Doing analysis at TEMP = 27.000000 and TNOM = 27.000000


No. of Data Rows : 1
bg_out = 1.095929e+00
inn = 1.139637e+00
inp = 1.139618e+00
l1#branch = 0.000000e+00
ldo_out = 1.800928e+00
m.xm1.msky130_fd_pr__nfet_g5v0d10v5#body = 1.833507e-11
m.xm1.msky130_fd_pr__nfet_g5v0d10v5#dbody = 3.888862e-11
m.xm1.msky130_fd_pr__nfet_g5v0d10v5#sbody = 1.611659e-11
m.xm2.msky130_fd_pr__pfet_g5v0d10v5#body = 2.500000e+00
m.xm2.msky130_fd_pr__pfet_g5v0d10v5#dbody = 2.500000e+00
m.xm2.msky130_fd_pr__pfet_g5v0d10v5#sbody = 2.500000e+00
m.xm3.msky130_fd_pr__pfet_g5v0d10v5#body = 2.500000e+00
m.xm3.msky130_fd_pr__pfet_g5v0d10v5#dbody = 2.500000e+00
m.xm3.msky130_fd_pr__pfet_g5v0d10v5#sbody = 2.500000e+00
m.xm4.msky130_fd_pr__pfet_g5v0d10v5#body = 2.500000e+00
m.xm4.msky130_fd_pr__pfet_g5v0d10v5#dbody = 2.500000e+00
m.xm4.msky130_fd_pr__pfet_g5v0d10v5#sbody = 2.500000e+00
m.xm5.msky130_fd_pr__pfet_g5v0d10v5#body = 2.500000e+00
m.xm5.msky130_fd_pr__pfet_g5v0d10v5#dbody = 2.500000e+00
m.xm5.msky130_fd_pr__pfet_g5v0d10v5#sbody = 2.500000e+00
m.xm6.msky130_fd_pr__nfet_g5v0d10v5#body = 1.110195e-11
m.xm6.msky130_fd_pr__nfet_g5v0d10v5#dbody = 2.775487e-11
m.xm6.msky130_fd_pr__nfet_g5v0d10v5#sbody = 5.550980e-12
m.xm7.msky130_fd_pr__pfet_g5v0d10v5#body = 2.500000e+00
m.xm7.msky130_fd_pr__pfet_g5v0d10v5#dbody = 2.500000e+00
m.xm7.msky130_fd_pr__pfet_g5v0d10v5#sbody = 2.500000e+00
m.xm8.msky130_fd_pr__pfet_g5v0d10v5#body = 2.500000e+00
m.xm8.msky130_fd_pr__pfet_g5v0d10v5#dbody = 2.500000e+00
m.xm8.msky130_fd_pr__pfet_g5v0d10v5#sbody = 2.500000e+00
m.xm9.msky130_fd_pr__nfet_g5v0d10v5#body = 1.892862e-11
m.xm9.msky130_fd_pr__nfet_g5v0d10v5#dbody = 4.145878e-11
m.xm9.msky130_fd_pr__nfet_g5v0d10v5#sbody = 1.532707e-11
m.xm10.msky130_fd_pr__nfet_g5v0d10v5#body = 1.866711e-11
m.xm10.msky130_fd_pr__nfet_g5v0d10v5#dbody = 4.080501e-11
m.xm10.msky130_fd_pr__nfet_g5v0d10v5#sbody = 1.519632e-11
m.xm11.msky130_fd_pr__pfet_g5v0d10v5#body = 2.500000e+00
m.xm11.msky130_fd_pr__pfet_g5v0d10v5#dbody = 2.500000e+00
m.xm11.msky130_fd_pr__pfet_g5v0d10v5#sbody = 2.500000e+00
m.xm12.msky130_fd_pr__pfet_g5v0d10v5#body = 2.500000e+00
m.xm12.msky130_fd_pr__pfet_g5v0d10v5#dbody = 2.500000e+00
m.xm12.msky130_fd_pr__pfet_g5v0d10v5#sbody = 2.500000e+00
m.xm13.msky130_fd_pr__nfet_g5v0d10v5#body = 2.930024e-12
m.xm13.msky130_fd_pr__nfet_g5v0d10v5#dbody = 7.325049e-12
m.xm13.msky130_fd_pr__nfet_g5v0d10v5#sbody = 1.465022e-12
m.xm14.msky130_fd_pr__pfet_g5v0d10v5#body = 2.500000e+00
m.xm14.msky130_fd_pr__pfet_g5v0d10v5#dbody = 2.500000e+00
m.xm14.msky130_fd_pr__pfet_g5v0d10v5#sbody = 2.500000e+00
m.xm15.msky130_fd_pr__nfet_g5v0d10v5#body = 4.808641e-16
m.xm15.msky130_fd_pr__nfet_g5v0d10v5#dbody = 1.202123e-15
m.xm15.msky130_fd_pr__nfet_g5v0d10v5#sbody = 2.404691e-16
m.xm16.msky130_fd_pr__nfet_g5v0d10v5#body = 4.550409e-11
m.xm16.msky130_fd_pr__nfet_g5v0d10v5#dbody = 8.526068e-11
m.xm16.msky130_fd_pr__nfet_g5v0d10v5#sbody = 5.125160e-11
m.xm17.msky130_fd_pr__pfet_g5v0d10v5#body = 2.500000e+00
m.xm17.msky130_fd_pr__pfet_g5v0d10v5#dbody = 2.500000e+00
m.xm17.msky130_fd_pr__pfet_g5v0d10v5#sbody = 2.500000e+00
m.xm18.msky130_fd_pr__nfet_g5v0d10v5#body = 2.009569e-11
m.xm18.msky130_fd_pr__nfet_g5v0d10v5#dbody = 5.011268e-11
m.xm18.msky130_fd_pr__nfet_g5v0d10v5#sbody = 1.004786e-11
m.xm19.msky130_fd_pr__nfet_g5v0d10v5#body = 1.836745e-11
m.xm19.msky130_fd_pr__nfet_g5v0d10v5#dbody = 3.896957e-11
m.xm19.msky130_fd_pr__nfet_g5v0d10v5#sbody = 1.613278e-11
m.xm20.msky130_fd_pr__nfet_g5v0d10v5#body = 1.101856e-11
m.xm20.msky130_fd_pr__nfet_g5v0d10v5#dbody = 2.754639e-11
m.xm20.msky130_fd_pr__nfet_g5v0d10v5#sbody = 5.509294e-12
m.xm22.msky130_fd_pr__nfet_g5v0d10v5#body = 3.477242e-12
m.xm22.msky130_fd_pr__nfet_g5v0d10v5#dbody = 8.693099e-12
m.xm22.msky130_fd_pr__nfet_g5v0d10v5#sbody = 1.738626e-12
m.xm24.msky130_fd_pr__pfet_g5v0d10v5#body = 2.500000e+00
m.xm24.msky130_fd_pr__pfet_g5v0d10v5#dbody = 2.500000e+00
m.xm24.msky130_fd_pr__pfet_g5v0d10v5#sbody = 2.500000e+00
m.xm26.msky130_fd_pr__pfet_g5v0d10v5#body = 2.500000e+00
m.xm26.msky130_fd_pr__pfet_g5v0d10v5#dbody = 2.500000e+00
m.xm26.msky130_fd_pr__pfet_g5v0d10v5#sbody = 2.500000e+00
mir = 1.188498e+00
net1 = 7.251342e-01
net2 = 3.700255e-05
net3 = 7.846844e-01
net4 = 2.776170e-01
net5 = 1.191089e+00
net6 = 8.875936e-01
net7 = 7.846647e-01
net8 = 1.258622e+00
net9 = 1.279542e+00
net10 = 2.342738e-01
net11 = 1.602466e+00
net12 = 1.602466e+00
net13 = 0.000000e+00
out = 1.602466e+00
pos = 1.096118e+00
q.xq2.qsky130_fd_pr__pnp_05v5_w0p68l0p68#collcx = 2.094234e-03
q.xq3.qsky130_fd_pr__pnp_05v5_w0p68l0p68#collcx = 2.637131e-04
q.xq4.qsky130_fd_pr__pnp_05v5_w0p68l0p68#collcx = 2.637131e-04
q.xq8.qsky130_fd_pr__pnp_05v5_w0p68l0p68#collcx = 2.637131e-04
q.xq10.qsky130_fd_pr__pnp_05v5_w0p68l0p68#collcx = 2.637131e-04
q.xq12.qsky130_fd_pr__pnp_05v5_w0p68l0p68#collcx = 2.637131e-04
q.xq14.qsky130_fd_pr__pnp_05v5_w0p68l0p68#collcx = 2.637131e-04
q.xq16.qsky130_fd_pr__pnp_05v5_w0p68l0p68#collcx = 2.637131e-04
q.xq18.qsky130_fd_pr__pnp_05v5_w0p68l0p68#collcx = 2.637131e-04
vb = 8.813568e-01
vdd = 2.500000e+00
vs#branch = -1.73432e-04
vt#branch = 0.000000e+00
xc1.a = 0.000000e+00
xc1.b1 = 0.000000e+00
xc3.a = 1.602466e+00
xc3.b1 = 1.602466e+00
xr1.xsky130_fd_pr__res_xhigh_po_0p69.ra = 7.924191e-01
xr2.xsky130_fd_pr__res_xhigh_po_0p69.ra = 7.924389e-01
xr3.xsky130_fd_pr__res_xhigh_po_0p69.ra = 5.363220e-03
xr4.xsky130_fd_pr__res_xhigh_po_0p69.ra = 7.276719e-01
xr5.xsky130_fd_pr__res_xhigh_po_0p69.ra = 5.363076e-03
xr6.xsky130_fd_pr__res_xhigh_po_0p69.ra = 8.229110e-03
xr7.xsky130_fd_pr__res_xhigh_po_0p69.ra = 1.602466e+00
xr8.xsky130_fd_pr__res_xhigh_po_0p69.ra = 1.108627e+00
xr9.xsky130_fd_pr__res_xhigh_po_0p69.ra = 1.291336e-02
Doing analysis at TEMP = 27.000000 and TNOM = 27.000000


No. of Data Rows : 91
Note: Starting true gmin stepping
Trying gmin =   1.0000E-03 Note: One successful gmin step
Trying gmin =   1.0000E-04 Note: One successful gmin step
Trying gmin =   1.0000E-05 Note: One successful gmin step
Trying gmin =   1.0000E-06 Note: One successful gmin step
Trying gmin =   1.0000E-07 Note: One successful gmin step
Trying gmin =   1.0000E-08 Warning: Further gmin increment
Trying gmin =   5.6234E-08 Note: One successful gmin step
Trying gmin =   3.1623E-08 Note: One successful gmin step
Trying gmin =   1.7783E-08 Note: One successful gmin step
Trying gmin =   7.4989E-09 Note: One successful gmin step
Trying gmin =   2.0535E-09 Note: One successful gmin step
Trying gmin =   2.9427E-10 Note: One successful gmin step
Trying gmin =   2.9427E-11 Note: One successful gmin step
Trying gmin =   2.9427E-12 Note: One successful gmin step
Trying gmin =   1.0000E-12 Note: One successful gmin step
Note: True gmin stepping completed
 Reference value :  1.50000e+00Note: Starting true gmin stepping
Trying gmin =   1.0000E-03 Note: One successful gmin step
Trying gmin =   1.0000E-04 Note: One successful gmin step
Trying gmin =   1.0000E-05 Note: One successful gmin step
Trying gmin =   1.0000E-06 Note: One successful gmin step
Trying gmin =   1.0000E-07 Note: One successful gmin step
Trying gmin =   1.0000E-08 Warning: Further gmin increment
Trying gmin =   5.6234E-08 Note: One successful gmin step
Trying gmin =   3.1623E-08 Warning: Further gmin increment
Trying gmin =   4.8697E-08 Note: One successful gmin step
Trying gmin =   3.9242E-08 Note: One successful gmin step
Trying gmin =   2.8387E-08 Note: One successful gmin step
Trying gmin =   1.7466E-08 Note: One successful gmin step
Trying gmin =   8.4291E-09 Note: One successful gmin step
Trying gmin =   2.8260E-09 Note: One successful gmin step
Trying gmin =   5.4860E-10 Note: One successful gmin step
Trying gmin =   5.4860E-11 Note: One successful gmin step
Trying gmin =   5.4860E-12 Note: One successful gmin step
Trying gmin =   1.0000E-12 Note: One successful gmin step
Note: True gmin stepping completed
pm                  =  6.136825e+01
Doing analysis at TEMP = 27.000000 and TNOM = 27.000000


No. of Data Rows : 91
psrr100             =  -7.367519e+01
psrr100k            =  -2.593633e+01
Doing analysis at TEMP = 27.000000 and TNOM = 27.000000


No. of Data Rows : 86
temp_coeff = 2.838119e+01
Doing analysis at TEMP = 27.000000 and TNOM = 27.000000


No. of Data Rows : 141
vldo_sup_2          =  1.800938e+00
vldo_sup_2_8        =  1.800878e+00
line_reg = 7.500000e-05
Note: No ".plot", ".print", or ".fourier" lines; no simulations run
vin                 =  1.764158e+00
dropout = 1.580000e-04
