 Reference value :  0.00000e+00
No compatibility mode selected!


Circuit: * ldo netlist 

Doing analysis at TEMP = 27.000000 and TNOM = 27.000000


No. of Data Rows : 1
bg_out = 1.198665e+00
inn = 1.233628e+00
inp = 1.233597e+00
l1#branch = 0.000000e+00
ldo_out = 1.803675e+00
m.xm1.msky130_fd_pr__nfet_g5v0d10v5#body = 1.831544e-11
m.xm1.msky130_fd_pr__nfet_g5v0d10v5#dbody = 3.931104e-11
m.xm1.msky130_fd_pr__nfet_g5v0d10v5#sbody = 1.563527e-11
m.xm2.msky130_fd_pr__pfet_g5v0d10v5#body = 2.500000e+00
m.xm2.msky130_fd_pr__pfet_g5v0d10v5#dbody = 2.500000e+00
m.xm2.msky130_fd_pr__pfet_g5v0d10v5#sbody = 2.500000e+00
m.xm3.msky130_fd_pr__pfet_g5v0d10v5#body = 2.500000e+00
m.xm3.msky130_fd_pr__pfet_g5v0d10v5#dbody = 2.500000e+00
m.xm3.msky130_fd_pr__pfet_g5v0d10v5#sbody = 2.500000e+00
m.xm4.msky130_fd_pr__pfet_g5v0d10v5#body = 2.500000e+00
m.xm4.msky130_fd_pr__pfet_g5v0d10v5#dbody = 2.500000e+00
m.xm4.msky130_fd_pr__pfet_g5v0d10v5#sbody = 2.500000e+00
m.xm5.msky130_fd_pr__pfet_g5v0d10v5#body = 2.500000e+00
m.xm5.msky130_fd_pr__pfet_g5v0d10v5#dbody = 2.500000e+00
m.xm5.msky130_fd_pr__pfet_g5v0d10v5#sbody = 2.500000e+00
m.xm6.msky130_fd_pr__nfet_g5v0d10v5#body = 1.228361e-11
m.xm6.msky130_fd_pr__nfet_g5v0d10v5#dbody = 3.070901e-11
m.xm6.msky130_fd_pr__nfet_g5v0d10v5#sbody = 6.141808e-12
m.xm7.msky130_fd_pr__pfet_g5v0d10v5#body = 2.500000e+00
m.xm7.msky130_fd_pr__pfet_g5v0d10v5#dbody = 2.500000e+00
m.xm7.msky130_fd_pr__pfet_g5v0d10v5#sbody = 2.500000e+00
m.xm8.msky130_fd_pr__pfet_g5v0d10v5#body = 2.500000e+00
m.xm8.msky130_fd_pr__pfet_g5v0d10v5#dbody = 2.500000e+00
m.xm8.msky130_fd_pr__pfet_g5v0d10v5#sbody = 2.500000e+00
m.xm9.msky130_fd_pr__nfet_g5v0d10v5#body = 1.901449e-11
m.xm9.msky130_fd_pr__nfet_g5v0d10v5#dbody = 4.206968e-11
m.xm9.msky130_fd_pr__nfet_g5v0d10v5#sbody = 1.497377e-11
m.xm10.msky130_fd_pr__nfet_g5v0d10v5#body = 1.886090e-11
m.xm10.msky130_fd_pr__nfet_g5v0d10v5#dbody = 4.168572e-11
m.xm10.msky130_fd_pr__nfet_g5v0d10v5#sbody = 1.489698e-11
m.xm11.msky130_fd_pr__pfet_g5v0d10v5#body = 2.500000e+00
m.xm11.msky130_fd_pr__pfet_g5v0d10v5#dbody = 2.500000e+00
m.xm11.msky130_fd_pr__pfet_g5v0d10v5#sbody = 2.500000e+00
m.xm12.msky130_fd_pr__pfet_g5v0d10v5#body = 2.500000e+00
m.xm12.msky130_fd_pr__pfet_g5v0d10v5#dbody = 2.500000e+00
m.xm12.msky130_fd_pr__pfet_g5v0d10v5#sbody = 2.500000e+00
m.xm13.msky130_fd_pr__nfet_g5v0d10v5#body = 2.731908e-12
m.xm13.msky130_fd_pr__nfet_g5v0d10v5#dbody = 6.829759e-12
m.xm13.msky130_fd_pr__nfet_g5v0d10v5#sbody = 1.365965e-12
m.xm14.msky130_fd_pr__pfet_g5v0d10v5#body = 2.500000e+00
m.xm14.msky130_fd_pr__pfet_g5v0d10v5#dbody = 2.500000e+00
m.xm14.msky130_fd_pr__pfet_g5v0d10v5#sbody = 2.500000e+00
m.xm15.msky130_fd_pr__nfet_g5v0d10v5#body = 5.302673e-16
m.xm15.msky130_fd_pr__nfet_g5v0d10v5#dbody = 1.325643e-15
m.xm15.msky130_fd_pr__nfet_g5v0d10v5#sbody = 2.651588e-16
m.xm16.msky130_fd_pr__nfet_g5v0d10v5#body = 4.667908e-11
m.xm16.msky130_fd_pr__nfet_g5v0d10v5#dbody = 8.584828e-11
m.xm16.msky130_fd_pr__nfet_g5v0d10v5#sbody = 5.418897e-11
m.xm17.msky130_fd_pr__pfet_g5v0d10v5#body = 2.500000e+00
m.xm17.msky130_fd_pr__pfet_g5v0d10v5#dbody = 2.500000e+00
m.xm17.msky130_fd_pr__pfet_g5v0d10v5#sbody = 2.500000e+00
m.xm18.msky130_fd_pr__nfet_g5v0d10v5#body = 1.134589e-11
m.xm18.msky130_fd_pr__nfet_g5v0d10v5#dbody = 2.836471e-11
m.xm18.msky130_fd_pr__nfet_g5v0d10v5#sbody = 5.672957e-12
m.xm19.msky130_fd_pr__nfet_g5v0d10v5#body = 1.836817e-11
m.xm19.msky130_fd_pr__nfet_g5v0d10v5#dbody = 3.944287e-11
m.xm19.msky130_fd_pr__nfet_g5v0d10v5#sbody = 1.566164e-11
m.xm20.msky130_fd_pr__nfet_g5v0d10v5#body = 1.286102e-11
m.xm20.msky130_fd_pr__nfet_g5v0d10v5#dbody = 3.215254e-11
m.xm20.msky130_fd_pr__nfet_g5v0d10v5#sbody = 6.430523e-12
m.xm22.msky130_fd_pr__nfet_g5v0d10v5#body = 3.241488e-12
m.xm22.msky130_fd_pr__nfet_g5v0d10v5#dbody = 8.103714e-12
m.xm22.msky130_fd_pr__nfet_g5v0d10v5#sbody = 1.620749e-12
m.xm24.msky130_fd_pr__pfet_g5v0d10v5#body = 2.500000e+00
m.xm24.msky130_fd_pr__pfet_g5v0d10v5#dbody = 2.500000e+00
m.xm24.msky130_fd_pr__pfet_g5v0d10v5#sbody = 2.500000e+00
m.xm26.msky130_fd_pr__pfet_g5v0d10v5#body = 2.500000e+00
m.xm26.msky130_fd_pr__pfet_g5v0d10v5#dbody = 2.500000e+00
m.xm26.msky130_fd_pr__pfet_g5v0d10v5#sbody = 2.500000e+00
mir = 1.205783e+00
net1 = 7.329133e-01
net2 = 4.079841e-05
net3 = 7.924552e-01
net4 = 2.587526e-01
net5 = 1.210002e+00
net6 = 9.821219e-01
net7 = 7.924233e-01
net8 = 1.289970e+00
net9 = 1.302257e+00
net10 = 2.184204e-01
net11 = 9.075387e-01
net12 = 9.075387e-01
net13 = 0.000000e+00
out = 9.075387e-01
pos = 1.198776e+00
q.xq2.qsky130_fd_pr__pnp_05v5_w0p68l0p68#collcx = 2.121735e-03
q.xq3.qsky130_fd_pr__pnp_05v5_w0p68l0p68#collcx = 2.691939e-04
q.xq4.qsky130_fd_pr__pnp_05v5_w0p68l0p68#collcx = 2.691939e-04
q.xq8.qsky130_fd_pr__pnp_05v5_w0p68l0p68#collcx = 2.691939e-04
q.xq10.qsky130_fd_pr__pnp_05v5_w0p68l0p68#collcx = 2.691939e-04
q.xq12.qsky130_fd_pr__pnp_05v5_w0p68l0p68#collcx = 2.691939e-04
q.xq14.qsky130_fd_pr__pnp_05v5_w0p68l0p68#collcx = 2.691939e-04
q.xq16.qsky130_fd_pr__pnp_05v5_w0p68l0p68#collcx = 2.691939e-04
q.xq18.qsky130_fd_pr__pnp_05v5_w0p68l0p68#collcx = 2.691939e-04
vb = 1.028749e+00
vdd = 2.500000e+00
vs#branch = -1.00335e-01
vt#branch = 0.000000e+00
xc1.a = 0.000000e+00
xc1.b1 = 0.000000e+00
xc3.a = 9.075387e-01
xc3.b1 = 9.075387e-01
xr1.xsky130_fd_pr__res_xhigh_po_0p69.ra = 7.953341e-01
xr2.xsky130_fd_pr__res_xhigh_po_0p69.ra = 7.953660e-01
xr3.xsky130_fd_pr__res_xhigh_po_0p69.ra = 1.980334e-03
xr4.xsky130_fd_pr__res_xhigh_po_0p69.ra = 7.338827e-01
xr5.xsky130_fd_pr__res_xhigh_po_0p69.ra = 1.980249e-03
xr6.xsky130_fd_pr__res_xhigh_po_0p69.ra = 3.094895e-03
xr7.xsky130_fd_pr__res_xhigh_po_0p69.ra = 9.075387e-01
xr8.xsky130_fd_pr__res_xhigh_po_0p69.ra = 1.203920e+00
xr9.xsky130_fd_pr__res_xhigh_po_0p69.ra = 5.394564e-03
Doing analysis at TEMP = 27.000000 and TNOM = 27.000000


No. of Data Rows : 91
Error: -2.51997e+161, 2 out of range for ^
Error: -2.51997e+161, 2 out of range for ^
Note: Starting true gmin stepping
Trying gmin =   1.0000E-03 Note: One successful gmin step
Trying gmin =   1.0000E-04 Note: One successful gmin step
Trying gmin =   1.0000E-05 Note: One successful gmin step
Trying gmin =   1.0000E-06 Note: One successful gmin step
Trying gmin =   1.0000E-07 Note: One successful gmin step
Trying gmin =   1.0000E-08 Error: -1.21056e+165, 2 out of range for ^
Warning: Further gmin increment
Trying gmin =   5.6234E-08 Warning: Further gmin increment
Trying gmin =   8.6596E-08 Note: One successful gmin step
Trying gmin =   6.9783E-08 Warning: Further gmin increment
Trying gmin =   8.2047E-08 Note: One successful gmin step
Trying gmin =   7.5667E-08 Note: One successful gmin step
Trying gmin =   6.7015E-08 Warning: Further gmin increment
Trying gmin =   7.3404E-08 Warning: Further gmin increment
Trying gmin =   7.5095E-08 Warning: Further gmin increment
Trying gmin =   7.5524E-08 Note: One successful gmin step
Trying gmin =   7.5309E-08 Note: One successful gmin step
Trying gmin =   7.4988E-08 Warning: Further gmin increment
Trying gmin =   7.5229E-08 Note: One successful gmin step
Trying gmin =   7.5108E-08 Warning: Further gmin increment
Trying gmin =   7.5198E-08 Note: One successful gmin step
Trying gmin =   7.5153E-08 Warning: Further gmin increment
Trying gmin =   7.5187E-08 Note: One successful gmin step
Trying gmin =   7.5170E-08 Warning: Further gmin increment
Trying gmin =   7.5183E-08 Note: One successful gmin step
Trying gmin =   7.5177E-08 Warning: Further gmin increment
Trying gmin =   7.5181E-08 Note: One successful gmin step
Trying gmin =   7.5179E-08 Warning: Last gmin step failed
Warning: True gmin stepping failed
Note: Starting dynamic gmin stepping
Trying gmin =   1.0000E-03 Note: One successful gmin step
Trying gmin =   1.0000E-04 Note: One successful gmin step
Trying gmin =   1.0000E-05 Note: One successful gmin step
Trying gmin =   1.0000E-06 Note: One successful gmin step
Trying gmin =   1.0000E-07 Note: One successful gmin step
Trying gmin =   1.0000E-08 Note: One successful gmin step
Trying gmin =   1.0000E-09 Note: One successful gmin step
Trying gmin =   1.0000E-10 Note: One successful gmin step
Trying gmin =   1.0000E-11 Note: One successful gmin step
Trying gmin =   1.0000E-12 Note: One successful gmin step
Trying gmin =   1.0000E-12 Note: One successful gmin step
Note: Dynamic gmin stepping completed
 Reference value :  2.80000e+00Note: Starting true gmin stepping
Trying gmin =   1.0000E-03 Note: One successful gmin step
Trying gmin =   1.0000E-04 Note: One successful gmin step
Trying gmin =   1.0000E-05 Note: One successful gmin step
Trying gmin =   1.0000E-06 Note: One successful gmin step
Trying gmin =   1.0000E-07 Note: One successful gmin step
Trying gmin =   1.0000E-08 Note: One successful gmin step
Trying gmin =   1.0000E-09 Note: One successful gmin step
Trying gmin =   1.0000E-10 Warning: Further gmin increment
Trying gmin =   5.6234E-10 Note: One successful gmin step
Trying gmin =   2.3714E-10 Warning: Further gmin increment
Trying gmin =   4.5316E-10 Note: One successful gmin step
Trying gmin =   3.2781E-10 Note: One successful gmin step
Trying gmin =   2.0169E-10 Warning: Further gmin increment
Trying gmin =   2.9033E-10 Note: One successful gmin step
Trying gmin =   2.7323E-10 Note: One successful gmin step
Trying gmin =   2.4944E-10 Note: One successful gmin step
Trying gmin =   2.1759E-10 Note: One successful gmin step
Trying gmin =   1.7728E-10 Note: One successful gmin step
Trying gmin =   1.3037E-10 Note: One successful gmin step
Trying gmin =   8.2214E-11 Note: One successful gmin step
Trying gmin =   4.1173E-11 Note: One successful gmin step
Trying gmin =   1.4592E-11 Note: One successful gmin step
Trying gmin =   3.0785E-12 Note: One successful gmin step
Trying gmin =   1.0000E-12 Note: One successful gmin step
Note: True gmin stepping completed
 Reference value :  1.32000e+00Note: Starting true gmin stepping
Trying gmin =   1.0000E-03 Note: One successful gmin step
Trying gmin =   1.0000E-04 Note: One successful gmin step
Trying gmin =   1.0000E-05 Note: One successful gmin step
Trying gmin =   1.0000E-06 Note: One successful gmin step
Trying gmin =   1.0000E-07 Note: One successful gmin step
Trying gmin =   1.0000E-08 Note: One successful gmin step
Trying gmin =   1.0000E-09 Note: One successful gmin step
Trying gmin =   1.0000E-10 Warning: Further gmin increment
Trying gmin =   5.6234E-10 Note: One successful gmin step
Trying gmin =   4.2170E-10 Note: One successful gmin step
Trying gmin =   2.7384E-10 Note: One successful gmin step
Trying gmin =   1.4330E-10 Warning: Further gmin increment
Trying gmin =   2.3291E-10 Note: One successful gmin step
Trying gmin =   1.8269E-10 Note: One successful gmin step
Trying gmin =   1.6180E-10 Note: One successful gmin step
Trying gmin =   1.3486E-10 Note: One successful gmin step
Trying gmin =   1.0262E-10 Note: One successful gmin step
Trying gmin =   6.8116E-11 Note: One successful gmin step
Trying gmin =   3.6837E-11 Note: One successful gmin step
Trying gmin =   1.4650E-11 Note: One successful gmin step
Trying gmin =   3.6741E-12 Note: One successful gmin step
Trying gmin =   1.0000E-12 Note: One successful gmin step
Note: True gmin stepping completed
pm                  =  6.185518e+01
Doing analysis at TEMP = 27.000000 and TNOM = 27.000000


No. of Data Rows : 91
psrr100             =  -7.788509e+01
psrr100k            =  -2.695070e+01
Doing analysis at TEMP = 27.000000 and TNOM = 27.000000


No. of Data Rows : 86
temp_coeff = 1.906663e+02
Doing analysis at TEMP = 27.000000 and TNOM = 27.000000


No. of Data Rows : 141
vldo_sup_2          =  1.798674e+00
vldo_sup_2_8        =  1.803700e+00
line_reg = 6.282500e-03
Note: No ".plot", ".print", or ".fourier" lines; no simulations run
vin                 =  1.968092e+00
dropout = 2.040920e-01
