Note: Starting true gmin stepping
Trying gmin =   1.0000E-03 Note: One successful gmin step
Trying gmin =   1.0000E-04 Note: One successful gmin step
Trying gmin =   1.0000E-05 Note: One successful gmin step
Trying gmin =   1.0000E-06 Note: One successful gmin step
Trying gmin =   1.0000E-07 Note: One successful gmin step
Trying gmin =   1.0000E-08 Warning: Further gmin increment
Trying gmin =   5.6234E-08 Warning: Further gmin increment
Trying gmin =   8.6596E-08 Warning: Further gmin increment
Trying gmin =   9.6466E-08 Note: One successful gmin step
Trying gmin =   9.1398E-08 Note: One successful gmin step
Trying gmin =   8.4291E-08 Note: One successful gmin step
Trying gmin =   8.0947E-08 Note: One successful gmin step
Trying gmin =   7.6179E-08 Note: One successful gmin step
Trying gmin =   6.9548E-08 Note: One successful gmin step
Trying gmin =   6.0668E-08 Note: One successful gmin step
Trying gmin =   4.9428E-08 Note: One successful gmin step
Trying gmin =   3.6348E-08 Note: One successful gmin step
Trying gmin =   2.2922E-08 Note: One successful gmin step
Trying gmin =   1.1479E-08 Note: One successful gmin step
Trying gmin =   4.0683E-09 Note: One successful gmin step
Trying gmin =   8.5832E-10 Note: One successful gmin step
Trying gmin =   8.5832E-11 Note: One successful gmin step
Trying gmin =   8.5832E-12 Note: One successful gmin step
Trying gmin =   1.0000E-12 Note: One successful gmin step
Note: True gmin stepping completed
 Reference value :  0.00000e+00
No compatibility mode selected!


Circuit: * ldo netlist 

Doing analysis at TEMP = 0.000000 and TNOM = 27.000000


No. of Data Rows : 1
bg_out = 1.195680e+00
inn = 1.266662e+00
inp = 1.266637e+00
l1#branch = 0.000000e+00
ldo_out = 1.798443e+00
m.xm1.msky130_fd_pr__nfet_g5v0d10v5#body = 1.803324e-11
m.xm1.msky130_fd_pr__nfet_g5v0d10v5#dbody = 3.852485e-11
m.xm1.msky130_fd_pr__nfet_g5v0d10v5#sbody = 1.557488e-11
m.xm2.msky130_fd_pr__pfet_g5v0d10v5#body = 2.500000e+00
m.xm2.msky130_fd_pr__pfet_g5v0d10v5#dbody = 2.500000e+00
m.xm2.msky130_fd_pr__pfet_g5v0d10v5#sbody = 2.500000e+00
m.xm3.msky130_fd_pr__pfet_g5v0d10v5#body = 2.500000e+00
m.xm3.msky130_fd_pr__pfet_g5v0d10v5#dbody = 2.500000e+00
m.xm3.msky130_fd_pr__pfet_g5v0d10v5#sbody = 2.500000e+00
m.xm4.msky130_fd_pr__pfet_g5v0d10v5#body = 2.500000e+00
m.xm4.msky130_fd_pr__pfet_g5v0d10v5#dbody = 2.500000e+00
m.xm4.msky130_fd_pr__pfet_g5v0d10v5#sbody = 2.500000e+00
m.xm5.msky130_fd_pr__pfet_g5v0d10v5#body = 2.500000e+00
m.xm5.msky130_fd_pr__pfet_g5v0d10v5#dbody = 2.500000e+00
m.xm5.msky130_fd_pr__pfet_g5v0d10v5#sbody = 2.500000e+00
m.xm6.msky130_fd_pr__nfet_g5v0d10v5#body = 1.246984e-11
m.xm6.msky130_fd_pr__nfet_g5v0d10v5#dbody = 3.117458e-11
m.xm6.msky130_fd_pr__nfet_g5v0d10v5#sbody = 6.234922e-12
m.xm7.msky130_fd_pr__pfet_g5v0d10v5#body = 2.500000e+00
m.xm7.msky130_fd_pr__pfet_g5v0d10v5#dbody = 2.500000e+00
m.xm7.msky130_fd_pr__pfet_g5v0d10v5#sbody = 2.500000e+00
m.xm8.msky130_fd_pr__pfet_g5v0d10v5#body = 2.500000e+00
m.xm8.msky130_fd_pr__pfet_g5v0d10v5#dbody = 2.500000e+00
m.xm8.msky130_fd_pr__pfet_g5v0d10v5#sbody = 2.500000e+00
m.xm9.msky130_fd_pr__nfet_g5v0d10v5#body = 1.834827e-11
m.xm9.msky130_fd_pr__nfet_g5v0d10v5#dbody = 4.093025e-11
m.xm9.msky130_fd_pr__nfet_g5v0d10v5#sbody = 1.411456e-11
m.xm10.msky130_fd_pr__nfet_g5v0d10v5#body = 1.808587e-11
m.xm10.msky130_fd_pr__nfet_g5v0d10v5#dbody = 4.027426e-11
m.xm10.msky130_fd_pr__nfet_g5v0d10v5#sbody = 1.398336e-11
m.xm11.msky130_fd_pr__pfet_g5v0d10v5#body = 2.500000e+00
m.xm11.msky130_fd_pr__pfet_g5v0d10v5#dbody = 2.500000e+00
m.xm11.msky130_fd_pr__pfet_g5v0d10v5#sbody = 2.500000e+00
m.xm12.msky130_fd_pr__pfet_g5v0d10v5#body = 2.500000e+00
m.xm12.msky130_fd_pr__pfet_g5v0d10v5#dbody = 2.500000e+00
m.xm12.msky130_fd_pr__pfet_g5v0d10v5#sbody = 2.500000e+00
m.xm13.msky130_fd_pr__nfet_g5v0d10v5#body = 2.470191e-12
m.xm13.msky130_fd_pr__nfet_g5v0d10v5#dbody = 6.175468e-12
m.xm13.msky130_fd_pr__nfet_g5v0d10v5#sbody = 1.235105e-12
m.xm14.msky130_fd_pr__pfet_g5v0d10v5#body = 2.500000e+00
m.xm14.msky130_fd_pr__pfet_g5v0d10v5#dbody = 2.500000e+00
m.xm14.msky130_fd_pr__pfet_g5v0d10v5#sbody = 2.500000e+00
m.xm15.msky130_fd_pr__nfet_g5v0d10v5#body = 4.282443e-16
m.xm15.msky130_fd_pr__nfet_g5v0d10v5#dbody = 1.070590e-15
m.xm15.msky130_fd_pr__nfet_g5v0d10v5#sbody = 2.141427e-16
m.xm16.msky130_fd_pr__nfet_g5v0d10v5#body = 4.708339e-11
m.xm16.msky130_fd_pr__nfet_g5v0d10v5#dbody = 8.604181e-11
m.xm16.msky130_fd_pr__nfet_g5v0d10v5#sbody = 5.520835e-11
m.xm17.msky130_fd_pr__pfet_g5v0d10v5#body = 2.500000e+00
m.xm17.msky130_fd_pr__pfet_g5v0d10v5#dbody = 2.500000e+00
m.xm17.msky130_fd_pr__pfet_g5v0d10v5#sbody = 2.500000e+00
m.xm18.msky130_fd_pr__nfet_g5v0d10v5#body = 1.972089e-11
m.xm18.msky130_fd_pr__nfet_g5v0d10v5#dbody = 4.922338e-11
m.xm18.msky130_fd_pr__nfet_g5v0d10v5#sbody = 9.860458e-12
m.xm19.msky130_fd_pr__nfet_g5v0d10v5#body = 1.807706e-11
m.xm19.msky130_fd_pr__nfet_g5v0d10v5#dbody = 3.863438e-11
m.xm19.msky130_fd_pr__nfet_g5v0d10v5#sbody = 1.559679e-11
m.xm20.msky130_fd_pr__nfet_g5v0d10v5#body = 1.304119e-11
m.xm20.msky130_fd_pr__nfet_g5v0d10v5#dbody = 3.260295e-11
m.xm20.msky130_fd_pr__nfet_g5v0d10v5#sbody = 6.520605e-12
m.xm22.msky130_fd_pr__nfet_g5v0d10v5#body = 3.279165e-12
m.xm22.msky130_fd_pr__nfet_g5v0d10v5#dbody = 8.197908e-12
m.xm22.msky130_fd_pr__nfet_g5v0d10v5#sbody = 1.639587e-12
m.xm24.msky130_fd_pr__pfet_g5v0d10v5#body = 2.500000e+00
m.xm24.msky130_fd_pr__pfet_g5v0d10v5#dbody = 2.500000e+00
m.xm24.msky130_fd_pr__pfet_g5v0d10v5#sbody = 2.500000e+00
m.xm26.msky130_fd_pr__pfet_g5v0d10v5#body = 2.500000e+00
m.xm26.msky130Note: Starting true gmin stepping
Trying gmin =   1.0000E-03 Note: One successful gmin step
Trying gmin =   1.0000E-04 Note: One successful gmin step
Trying gmin =   1.0000E-05 Note: One successful gmin step
Trying gmin =   1.0000E-06 Note: One successful gmin step
Trying gmin =   1.0000E-07 Note: One successful gmin step
Trying gmin =   1.0000E-08 Warning: Further gmin increment
Trying gmin =   5.6234E-08 Warning: Further gmin increment
Trying gmin =   8.6596E-08 Warning: Further gmin increment
Trying gmin =   9.6466E-08 Note: One successful gmin step
Trying gmin =   9.1398E-08 Note: One successful gmin step
Trying gmin =   8.4291E-08 Note: One successful gmin step
Trying gmin =   8.0947E-08 Note: One successful gmin step
Trying gmin =   7.6179E-08 Note: One successful gmin step
Trying gmin =   6.9548E-08 Note: One successful gmin step
Trying gmin =   6.0668E-08 Note: One successful gmin step
Trying gmin =   4.9428E-08 Note: One successful gmin step
Trying gmin =   3.6348E-08 Note: One successful gmin step
Trying gmin =   2.2922E-08 Note: One successful gmin step
Trying gmin =   1.1479E-08 Note: One successful gmin step
Trying gmin =   4.0683E-09 Note: One successful gmin step
Trying gmin =   8.5832E-10 Note: One successful gmin step
Trying gmin =   8.5832E-11 Note: One successful gmin step
Trying gmin =   8.5832E-12 Note: One successful gmin step
Trying gmin =   1.0000E-12 Note: One successful gmin step
Note: True gmin stepping completed
_fd_pr__pfet_g5v0d10v5#dbody = 2.500000e+00
m.xm26.msky130_fd_pr__pfet_g5v0d10v5#sbody = 2.500000e+00
mir = 1.180325e+00
net1 = 7.746869e-01
net2 = 3.423920e-05
net3 = 8.280752e-01
net4 = 2.623255e-01
net5 = 1.183829e+00
net6 = 9.975791e-01
net7 = 8.280499e-01
net8 = 1.249250e+00
net9 = 1.270242e+00
net10 = 1.976135e-01
net11 = 1.574516e+00
net12 = 1.574516e+00
net13 = 0.000000e+00
out = 1.574516e+00
pos = 1.195856e+00
q.xq2.qsky130_fd_pr__pnp_05v5_w0p68l0p68#collcx = 1.709027e-03
q.xq3.qsky130_fd_pr__pnp_05v5_w0p68l0p68#collcx = 2.163586e-04
q.xq4.qsky130_fd_pr__pnp_05v5_w0p68l0p68#collcx = 2.163586e-04
q.xq8.qsky130_fd_pr__pnp_05v5_w0p68l0p68#collcx = 2.163586e-04
q.xq10.qsky130_fd_pr__pnp_05v5_w0p68l0p68#collcx = 2.163586e-04
q.xq12.qsky130_fd_pr__pnp_05v5_w0p68l0p68#collcx = 2.163586e-04
q.xq14.qsky130_fd_pr__pnp_05v5_w0p68l0p68#collcx = 2.163586e-04
q.xq16.qsky130_fd_pr__pnp_05v5_w0p68l0p68#collcx = 2.163586e-04
q.xq18.qsky130_fd_pr__pnp_05v5_w0p68l0p68#collcx = 2.163586e-04
vb = 1.043293e+00
vdd = 2.500000e+00
vs#branch = -1.70867e-04
vt#branch = 0.000000e+00
xc1.a = 0.000000e+00
xc1.b1 = 0.000000e+00
xc3.a = 1.574516e+00
xc3.b1 = 1.574516e+00
xr1.xsky130_fd_pr__res_xhigh_po_0p69.ra = 8.331612e-01
xr2.xsky130_fd_pr__res_xhigh_po_0p69.ra = 8.331866e-01
xr3.xsky130_fd_pr__res_xhigh_po_0p69.ra = 3.660868e-03
xr4.xsky130_fd_pr__res_xhigh_po_0p69.ra = 7.762248e-01
xr5.xsky130_fd_pr__res_xhigh_po_0p69.ra = 3.660748e-03
xr6.xsky130_fd_pr__res_xhigh_po_0p69.ra = 5.443749e-03
xr7.xsky130_fd_pr__res_xhigh_po_0p69.ra = 1.574516e+00
xr8.xsky130_fd_pr__res_xhigh_po_0p69.ra = 1.204910e+00
xr9.xsky130_fd_pr__res_xhigh_po_0p69.ra = 9.495668e-03
Doing analysis at TEMP = 0.000000 and TNOM = 27.000000


No. of Data Rows : 91
Note: Starting true gmin stepping
Trying gmin =   1.0000E-03 Note: One successful gmin step
Trying gmin =   1.0000E-04 Note: One successful gmin step
Trying gmin =   1.0000E-05 Note: One successful gmin step
Trying gmin =   1.0000E-06 Note: One successful gmin step
Trying gmin =   1.0000E-07 Note: One successful gmin step
Trying gmin =   1.0000E-08 Warning: Further gmin increment
Trying gmin =   5.6234E-08 Warning: Further gmin increment
Trying gmin =   8.6596E-08 Warning: Further gmin increment
Trying gmin =   9.6466E-08 Note: One successful gmin step
Trying gmin =   9.1398E-08 Note: One successful gmin step
Trying gmin =   8.4291E-08 Note: One successful gmin step
Trying gmin =   8.0947E-08 Note: One successful gmin step
Trying gmin =   7.6179E-08 Note: One successful gmin step
Trying gmin =   6.9548E-08 Note: One successful gmin step
Trying gmin =   6.0668E-08 Note: One successful gmin step
Trying gmin =   4.9428E-08 Note: One successful gmin step
Trying gmin =   3.6348E-08 Note: One successful gmin step
Trying gmin =   2.2922E-08 Note: One successful gmin step
Trying gmin =   1.1479E-08 Note: One successful gmin step
Trying gmin =   4.0683E-09 Note: One successful gmin step
Trying gmin =   8.5832E-10 Note: One successful gmin step
Trying gmin =   8.5832E-11 Note: One successful gmin step
Trying gmin =   8.5832E-12 Note: One successful gmin step
Trying gmin =   1.0000E-12 Note: One successful gmin step
Note: True gmin stepping completed
 Reference value :  1.00000e+00Note: Starting true gmin stepping
Trying gmin =   1.0000E-03 Note: One successful gmin step
Trying gmin =   1.0000E-04 Note: One successful gmin step
Trying gmin =   1.0000E-05 Note: One successful gmin step
Trying gmin =   1.0000E-06 Note: One successful gmin step
Trying gmin =   1.0000E-07 Note: One successful gmin step
Trying gmin =   1.0000E-08 Warning: Further gmin increment
Trying gmin =   5.6234E-08 Warning: Further gmin increment
Trying gmin =   8.6596E-08 Note: One successful gmin step
Trying gmin =   6.9783E-08 Note: One successful gmin step
Trying gmin =   5.0481E-08 Warning: Further gmin increment
Trying gmin =   6.4357E-08 Note: One successful gmin step
Trying gmin =   5.6998E-08 Warning: Further gmin increment
Trying gmin =   6.2432E-08 Warning: Further gmin increment
Trying gmin =   6.3870E-08 Note: One successful gmin step
Trying gmin =   6.3147E-08 Note: One successful gmin step
Trying gmin =   6.2078E-08 Warning: Further gmin increment
Trying gmin =   6.2878E-08 Note: One successful gmin step
Trying gmin =   6.2477E-08 Warning: Further gmin increment
Trying gmin =   6.2778E-08 Note: One successful gmin step
Trying gmin =   6.2627E-08 Note: One successful gmin step
Trying gmin =   6.2402E-08 Warning: Further gmin increment
Trying gmin =   6.2571E-08 Warning: Further gmin increment
Trying gmin =   6.2613E-08 Note: One successful gmin step
Trying gmin =   6.2592E-08 Note: One successful gmin step
Trying gmin =   6.2560E-08 Warning: Further gmin increment
Trying gmin =   6.2584E-08 Note: One successful gmin step
Trying gmin =   6.2572E-08 Warning: Further gmin increment
Trying gmin =   6.2581E-08 Note: One successful gmin step
Trying gmin =   6.2576E-08 Note: One successful gmin step
Trying gmin =   6.2570E-08 Warning: Further gmin increment
Trying gmin =   6.2575E-08 Warning: Last gmin step failed
Warning: True gmin stepping failed
Note: Starting dynamic gmin stepping
Trying gmin =   1.0000E-03 Note: One successful gmin step
Trying gmin =   1.0000E-04 Note: One successful gmin step
Trying gmin =   1.0000E-05 Warning: Further gmin increment
Trying gmin =   5.6234E-05 Note: One successful gmin step
Trying gmin =   2.3714E-05 Note: One successful gmin step
Trying gmin =   6.4938E-06 Warning: Further gmin increment
Trying gmin =   1.7154E-05 Note: One successful gmin step
Trying gmin =   1.0554E-05 Warning: Further gmin increment
Trying gmin =   1.5193E-05 Note: One successful gmin step
Trying gmin =   1.2663E-05 Note: One successful gmin step
Trying gmin =   9.6358E-06 Warning: Further gmin increment
Trying gmin =   1.1827E-05 Warning: Further gmin increment
Trying gmin =   1.2449E-05 Note: One successful gmin step
Trying gmin =   1.2134E-05 Note: One successful gmin step
Trying gmin =   1.1677E-05 Note: One successful gmin step
Trying gmin =   1.1023E-05 Note: One successful gmin step
Trying gmin =   1.0110E-05 Note: One successful gmin step
Trying gmin =   8.8803E-06 Note: One successful gmin step
Trying gmin =   7.3107E-06 Note: One successful gmin step
Trying gmin =   5.4608E-06 Note: One successful gmin step
Trying gmin =   3.5253E-06 Note: One successful gmin step
Trying gmin =   1.8286E-06 Note: One successful gmin step
Trying gmin =   6.8309E-07 Warning: Further gmin increment
Trying gmin =   1.4296E-06 Warning: Further gmin increment
Trying gmin =   1.7194E-06 Note: One successful gmin step
Trying gmin =   1.5678E-06 Note: One successful gmin step
Trying gmin =   1.3651E-06 Warning: Further gmin increment
Trying gmin =   1.5145E-06 Note: One successful gmin step
Trying gmin =   1.4378E-06 Warning: Further gmin increment
Trying gmin =   1.4949E-06 Warning: Further gmin increment
Trying gmin =   1.5096E-06 Note: One successful gmin step
Trying gmin =   1.5022E-06 Note: One successful gmin step
Trying gmin =   1.4913E-06 Warning: Further gmin increment
Trying gmin =   1.4995E-06 Note: One successful gmin step
Trying gmin =   1.4954E-06 Note: One successful gmin step
Trying gmin =   1.4893E-06 Note: One successful gmin step
Trying gmin =   1.4801E-06 Note: One successful gmin step
Trying gmin =   1.4665E-06 Note: One successful gmin step
Trying gmin =   1.4463E-06 Note: One successful gmin step
Trying gmin =   1.4165E-06 Note: One successful gmin step
Trying gmin =   1.3730E-06 Note: One successful gmin step
Trying gmin =   1.3103E-06 Note: One successful gmin step
Trying gmin =   1.2215E-06 Note: One successful gmin step
Trying gmin =   1.0994E-06 Note: One successful gmin step
Trying gmin =   9.3884E-07 Note: One successful gmin step
Trying gmin =   7.4085E-07 Note: One successful gmin step
Trying gmin =   5.1932E-07 Note: One successful gmin step
Trying gmin =   3.0478E-07 Note: One successful gmin step
Trying gmin =   1.3703E-07 Note: One successful gmin step
Trying gmin =   4.1313E-08 Note: One successful gmin step
Trying gmin =   6.8386E-09 Note: One successful gmin step
Trying gmin =   6.8386E-10 Note: One successful gmin step
Trying gmin =   6.8386E-11 Note: One successful gmin step
Trying gmin =   6.8386E-12 Note: One successful gmin step
Trying gmin =   1.0000E-12 Note: One successful gmin step
Note: Dynamic gmin stepping completed
 Reference value :  2.80000e+00Note: Starting true gmin stepping
Trying gmin =   1.0000E-03 Note: One successful gmin step
Trying gmin =   1.0000E-04 Note: One successful gmin step
Trying gmin =   1.0000E-05 Note: One successful gmin step
Trying gmin =   1.0000E-06 Note: One successful gmin step
Trying gmin =   1.0000E-07 Note: One successful gmin step
Trying gmin =   1.0000E-08 Note: One successful gmin step
Trying gmin =   1.0000E-09 Warning: Further gmin increment
Trying gmin =   5.6234E-09 Note: One successful gmin step
Trying gmin =   2.3714E-09 Note: One successful gmin step
Trying gmin =   1.0000E-09 Note: One successful gmin step
Trying gmin =   2.7384E-10 Note: One successful gmin step
Trying gmin =   1.4330E-10 Note: One successful gmin step
Trying gmin =   5.4247E-11 Note: One successful gmin step
Trying gmin =   1.2635E-11 Note: One successful gmin step
Trying gmin =   1.4202E-12 Note: One successful gmin step
Trying gmin =   1.0000E-12 Note: One successful gmin step
Note: True gmin stepping completed
Note: Starting true gmin stepping
Trying gmin =   1.0000E-03 Note: One successful gmin step
Trying gmin =   1.0000E-04 Note: One successful gmin step
Trying gmin =   1.0000E-05 Note: One successful gmin step
Trying gmin =   1.0000E-06 Note: One successful gmin step
Trying gmin =   1.0000E-07 Note: One successful gmin step
Trying gmin =   1.0000E-08 Note: One successful gmin step
Trying gmin =   3.1623E-09 Note: One successful gmin step
Trying gmin =   5.6234E-10 Note: One successful gmin step
Trying gmin =   5.6234E-11 Warning: Further gmin increment
Trying gmin =   3.1623E-10 Note: One successful gmin step
Trying gmin =   1.3335E-10 Note: One successful gmin step
Trying gmin =   3.6517E-11 Warning: Further gmin increment
Trying gmin =   9.6466E-11 Note: One successful gmin step
Trying gmin =   8.2047E-11 Note: One successful gmin step
Trying gmin =   6.4357E-11 Note: One successful gmin step
Trying gmin =   4.4709E-11 Note: One successful gmin step
Trying gmin =   2.5887E-11 Note: One successful gmin step
Trying gmin =   1.1406E-11 Note: One successful gmin step
Trying gmin =   3.3357E-12 Note: One successful gmin step
Trying gmin =   1.0000E-12 Note: One successful gmin step
Note: True gmin stepping completed
 Reference value :  1.38000e+00Note: Starting true gmin stepping
Trying gmin =   1.0000E-03 Note: One successful gmin step
Trying gmin =   1.0000E-04 Note: One successful gmin step
Trying gmin =   1.0000E-05 Note: One successful gmin step
Trying gmin =   1.0000E-06 Note: One successful gmin step
Trying gmin =   1.0000E-07 Note: One successful gmin step
Trying gmin =   1.0000E-08 Note: One successful gmin step
Trying gmin =   1.0000E-09 Note: One successful gmin step
Trying gmin =   1.0000E-10 Warning: Further gmin increment
Trying gmin =   5.6234E-10 Note: One successful gmin step
Trying gmin =   2.3714E-10 Note: One successful gmin step
Trying gmin =   6.4938E-11 Note: One successful gmin step
Trying gmin =   1.7783E-11 Note: One successful gmin step
Trying gmin =   2.5483E-12 Note: One successful gmin step
Trying gmin =   1.0000E-12 Note: One successful gmin step
Note: True gmin stepping completed
pm                  =  4.933283e+01
Doing analysis at TEMP = 0.000000 and TNOM = 27.000000


No. of Data Rows : 91
psrr100             =  -6.036664e+01
psrr100k            =  -2.710621e+01
Doing analysis at TEMP = 0.000000 and TNOM = 27.000000


No. of Data Rows : 86
temp_coeff = 1.551201e+02
Doing analysis at TEMP = 0.000000 and TNOM = 27.000000


No. of Data Rows : 141
vldo_sup_2          =  1.799104e+00
vldo_sup_2_8        =  1.798209e+00
line_reg = 1.118750e-03
Note: No ".plot", ".print", or ".fourier" lines; no simulations run
vin                 =  1.764148e+00
dropout = 1.480000e-04
