 Reference value :  0.00000e+00
No compatibility mode selected!


Circuit: * ldo netlist 

Doing analysis at TEMP = 27.000000 and TNOM = 27.000000


No. of Data Rows : 1
bg_out = 1.195757e+00
inn = 1.227449e+00
inp = 1.227426e+00
l1#branch = 0.000000e+00
ldo_out = 1.799328e+00
m.xm1.msky130_fd_pr__nfet_g5v0d10v5#body = 1.650350e-11
m.xm1.msky130_fd_pr__nfet_g5v0d10v5#dbody = 3.274246e-11
m.xm1.msky130_fd_pr__nfet_g5v0d10v5#sbody = 1.676806e-11
m.xm2.msky130_fd_pr__pfet_g5v0d10v5#body = 2.300000e+00
m.xm2.msky130_fd_pr__pfet_g5v0d10v5#dbody = 2.300000e+00
m.xm2.msky130_fd_pr__pfet_g5v0d10v5#sbody = 2.300000e+00
m.xm3.msky130_fd_pr__pfet_g5v0d10v5#body = 2.300000e+00
m.xm3.msky130_fd_pr__pfet_g5v0d10v5#dbody = 2.300000e+00
m.xm3.msky130_fd_pr__pfet_g5v0d10v5#sbody = 2.300000e+00
m.xm4.msky130_fd_pr__pfet_g5v0d10v5#body = 2.300000e+00
m.xm4.msky130_fd_pr__pfet_g5v0d10v5#dbody = 2.300000e+00
m.xm4.msky130_fd_pr__pfet_g5v0d10v5#sbody = 2.300000e+00
m.xm5.msky130_fd_pr__pfet_g5v0d10v5#body = 2.300000e+00
m.xm5.msky130_fd_pr__pfet_g5v0d10v5#dbody = 2.300000e+00
m.xm5.msky130_fd_pr__pfet_g5v0d10v5#sbody = 2.300000e+00
m.xm6.msky130_fd_pr__nfet_g5v0d10v5#body = 1.116649e-11
m.xm6.msky130_fd_pr__nfet_g5v0d10v5#dbody = 2.791622e-11
m.xm6.msky130_fd_pr__nfet_g5v0d10v5#sbody = 5.583250e-12
m.xm7.msky130_fd_pr__pfet_g5v0d10v5#body = 2.300000e+00
m.xm7.msky130_fd_pr__pfet_g5v0d10v5#dbody = 2.300000e+00
m.xm7.msky130_fd_pr__pfet_g5v0d10v5#sbody = 2.300000e+00
m.xm8.msky130_fd_pr__pfet_g5v0d10v5#body = 2.300000e+00
m.xm8.msky130_fd_pr__pfet_g5v0d10v5#dbody = 2.300000e+00
m.xm8.msky130_fd_pr__pfet_g5v0d10v5#sbody = 2.300000e+00
m.xm9.msky130_fd_pr__nfet_g5v0d10v5#body = 1.719470e-11
m.xm9.msky130_fd_pr__nfet_g5v0d10v5#dbody = 3.536641e-11
m.xm9.msky130_fd_pr__nfet_g5v0d10v5#sbody = 1.621768e-11
m.xm10.msky130_fd_pr__nfet_g5v0d10v5#body = 1.704154e-11
m.xm10.msky130_fd_pr__nfet_g5v0d10v5#dbody = 3.498352e-11
m.xm10.msky130_fd_pr__nfet_g5v0d10v5#sbody = 1.614110e-11
m.xm11.msky130_fd_pr__pfet_g5v0d10v5#body = 2.300000e+00
m.xm11.msky130_fd_pr__pfet_g5v0d10v5#dbody = 2.300000e+00
m.xm11.msky130_fd_pr__pfet_g5v0d10v5#sbody = 2.300000e+00
m.xm12.msky130_fd_pr__pfet_g5v0d10v5#body = 2.300000e+00
m.xm12.msky130_fd_pr__pfet_g5v0d10v5#dbody = 2.300000e+00
m.xm12.msky130_fd_pr__pfet_g5v0d10v5#sbody = 2.300000e+00
m.xm13.msky130_fd_pr__nfet_g5v0d10v5#body = 3.808806e-12
m.xm13.msky130_fd_pr__nfet_g5v0d10v5#dbody = 9.522004e-12
m.xm13.msky130_fd_pr__nfet_g5v0d10v5#sbody = 1.904415e-12
m.xm14.msky130_fd_pr__pfet_g5v0d10v5#body = 2.300000e+00
m.xm14.msky130_fd_pr__pfet_g5v0d10v5#dbody = 2.300000e+00
m.xm14.msky130_fd_pr__pfet_g5v0d10v5#sbody = 2.300000e+00
m.xm15.msky130_fd_pr__nfet_g5v0d10v5#body = 4.333282e-17
m.xm15.msky130_fd_pr__nfet_g5v0d10v5#dbody = 1.083279e-16
m.xm15.msky130_fd_pr__nfet_g5v0d10v5#sbody = 2.167058e-17
m.xm16.msky130_fd_pr__nfet_g5v0d10v5#body = 4.410175e-11
m.xm16.msky130_fd_pr__nfet_g5v0d10v5#dbody = 7.955950e-11
m.xm16.msky130_fd_pr__nfet_g5v0d10v5#sbody = 5.274573e-11
m.xm17.msky130_fd_pr__pfet_g5v0d10v5#body = 2.300000e+00
m.xm17.msky130_fd_pr__pfet_g5v0d10v5#dbody = 2.300000e+00
m.xm17.msky130_fd_pr__pfet_g5v0d10v5#sbody = 2.300000e+00
m.xm18.msky130_fd_pr__nfet_g5v0d10v5#body = 1.373612e-11
m.xm18.msky130_fd_pr__nfet_g5v0d10v5#dbody = 3.434029e-11
m.xm18.msky130_fd_pr__nfet_g5v0d10v5#sbody = 6.868074e-12
m.xm19.msky130_fd_pr__nfet_g5v0d10v5#body = 1.653481e-11
m.xm19.msky130_fd_pr__nfet_g5v0d10v5#dbody = 3.282072e-11
m.xm19.msky130_fd_pr__nfet_g5v0d10v5#sbody = 1.678371e-11
m.xm20.msky130_fd_pr__nfet_g5v0d10v5#body = 1.108196e-11
m.xm20.msky130_fd_pr__nfet_g5v0d10v5#dbody = 2.770488e-11
m.xm20.msky130_fd_pr__nfet_g5v0d10v5#sbody = 5.540991e-12
m.xm22.msky130_fd_pr__nfet_g5v0d10v5#body = 4.260866e-12
m.xm22.msky130_fd_pr__nfet_g5v0d10v5#dbody = 1.065216e-11
m.xm22.msky130_fd_pr__nfet_g5v0d10v5#sbody = 2.130438e-12
m.xm24.msky130_fd_pr__pfet_g5v0d10v5#body = 2.300000e+00
m.xm24.msky130_fd_pr__pfet_g5v0d10v5#dbody = 2.300000e+00
m.xm24.msky130_fd_pr__pfet_g5v0d10v5#sbody = 2.300000e+00
m.xm26.msky130_fd_pr__pfet_g5v0d10v5#body = 2.300000e+00
m.xm26.msky130_fd_pr__pfet_g5v0d10v5#dbody = 2.300000e+00
m.xm26.msky130_fd_pr__pfet_g5v0d10v5#sbody = 2.300000e+00
mir = 9.792830e-01
net1 = 7.274665e-01
net2 = 3.334389e-06
net3 = 7.873318e-01
net4 = 3.403069e-01
net5 = 9.817874e-01
net6 = 8.927567e-01
net7 = 7.873078e-01
net8 = 1.058274e+00
net9 = 1.070526e+00
net10 = 3.045764e-01
net11 = 1.098761e+00
net12 = 1.098761e+00
net13 = 0.000000e+00
out = 1.098761e+00
pos = 1.195888e+00
q.xq2.qsky130_fd_pr__pnp_05v5_w0p68l0p68#collcx = 2.277881e-03
q.xq3.qsky130_fd_pr__pnp_05v5_w0p68l0p68#collcx = 2.870631e-04
q.xq4.qsky130_fd_pr__pnp_05v5_w0p68l0p68#collcx = 2.870631e-04
q.xq8.qsky130_fd_pr__pnp_05v5_w0p68l0p68#collcx = 2.870631e-04
q.xq10.qsky130_fd_pr__pnp_05v5_w0p68l0p68#collcx = 2.870631e-04
q.xq12.qsky130_fd_pr__pnp_05v5_w0p68l0p68#collcx = 2.870631e-04
q.xq14.qsky130_fd_pr__pnp_05v5_w0p68l0p68#collcx = 2.870631e-04
q.xq16.qsky130_fd_pr__pnp_05v5_w0p68l0p68#collcx = 2.870631e-04
q.xq18.qsky130_fd_pr__pnp_05v5_w0p68l0p68#collcx = 2.870631e-04
vb = 8.864283e-01
vdd = 2.300000e+00
vs#branch = -1.01286e-02
vt#branch = 0.000000e+00
xc1.a = 0.000000e+00
xc1.b1 = 0.000000e+00
xc3.a = 1.098761e+00
xc3.b1 = 1.098761e+00
xr1.xsky130_fd_pr__res_xhigh_po_0p69.ra = 7.902114e-01
xr2.xsky130_fd_pr__res_xhigh_po_0p69.ra = 7.902354e-01
xr3.xsky130_fd_pr__res_xhigh_po_0p69.ra = 1.966688e-03
xr4.xsky130_fd_pr__res_xhigh_po_0p69.ra = 7.284414e-01
xr5.xsky130_fd_pr__res_xhigh_po_0p69.ra = 1.966624e-03
xr6.xsky130_fd_pr__res_xhigh_po_0p69.ra = 3.086704e-03
xr7.xsky130_fd_pr__res_xhigh_po_0p69.ra = 1.098761e+00
xr8.xsky130_fd_pr__res_xhigh_po_0p69.ra = 1.201018e+00
xr9.xsky130_fd_pr__res_xhigh_po_0p69.ra = 5.380385e-03
Doing analysis at TEMP = 27.000000 and TNOM = 27.000000


No. of Data Rows : 91
Note: Starting true gmin stepping
Trying gmin =   1.0000E-03 Note: One successful gmin step
Trying gmin =   1.0000E-04 Note: One successful gmin step
Trying gmin =   1.0000E-05 Note: One successful gmin step
Trying gmin =   1.0000E-06 Note: One successful gmin step
Trying gmin =   1.0000E-07 Warning: Further gmin increment
Trying gmin =   5.6234E-07 Note: One successful gmin step
Trying gmin =   2.3714E-07 Note: One successful gmin step
Trying gmin =   6.4938E-08 Note: One successful gmin step
Trying gmin =   9.3057E-09 Warning: Further gmin increment
Trying gmin =   3.9954E-08 Warning: Further gmin increment
Trying gmin =   5.7513E-08 Note: One successful gmin step
Trying gmin =   4.7936E-08 Note: One successful gmin step
Trying gmin =   3.6476E-08 Note: One successful gmin step
Trying gmin =   2.4212E-08 Note: One successful gmin step
Trying gmin =   1.3094E-08 Note: One successful gmin step
Trying gmin =   5.2073E-09 Note: One successful gmin step
Trying gmin =   1.3060E-09 Note: One successful gmin step
Trying gmin =   1.6403E-10 Note: One successful gmin step
Trying gmin =   1.6403E-11 Note: One successful gmin step
Trying gmin =   1.6403E-12 Note: One successful gmin step
Trying gmin =   1.0000E-12 Note: One successful gmin step
Note: True gmin stepping completed
 Reference value :  1.56000e+00Note: Starting true gmin stepping
Trying gmin =   1.0000E-03 Note: One successful gmin step
Trying gmin =   1.0000E-04 Note: One successful gmin step
Trying gmin =   1.0000E-05 Note: One successful gmin step
Trying gmin =   1.0000E-06 Note: One successful gmin step
Trying gmin =   1.0000E-07 Warning: Further gmin increment
Trying gmin =   5.6234E-07 Note: One successful gmin step
Trying gmin =   2.3714E-07 Note: One successful gmin step
Trying gmin =   6.4938E-08 Note: One successful gmin step
Trying gmin =   9.3057E-09 Warning: Further gmin increment
Trying gmin =   3.9954E-08 Warning: Further gmin increment
Trying gmin =   5.7513E-08 Note: One successful gmin step
Trying gmin =   4.7936E-08 Note: One successful gmin step
Trying gmin =   3.6476E-08 Note: One successful gmin step
Trying gmin =   2.4212E-08 Note: One successful gmin step
Trying gmin =   1.3094E-08 Note: One successful gmin step
Trying gmin =   5.2073E-09 Note: One successful gmin step
Trying gmin =   1.3060E-09 Note: One successful gmin step
Trying gmin =   1.6403E-10 Note: One successful gmin step
Trying gmin =   1.6403E-11 Note: One successful gmin step
Trying gmin =   1.6403E-12 Note: One successful gmin step
Trying gmin =   1.0000E-12 Note: One successful gmin step
Note: True gmin stepping completed
 Reference value :  8.40000e-01pm                  =  -9.231445e+01
Doing analysis at TEMP = 27.000000 and TNOM = 27.000000


No. of Data Rows : 91
psrr100             =  -8.027252e+01
psrr100k            =  -2.604991e+01
Doing analysis at TEMP = 27.000000 and TNOM = 27.000000


No. of Data Rows : 86
temp_coeff = 1.722792e+02
Doing analysis at TEMP = 27.000000 and TNOM = 27.000000


No. of Data Rows : 141
vldo_sup_2          =  1.799109e+00
vldo_sup_2_8        =  1.799326e+00
line_reg = 2.712500e-04
Note: No ".plot", ".print", or ".fourier" lines; no simulations run
vin                 =  1.786375e+00
dropout = 2.237500e-02
