 Reference value :  0.00000e+00
No compatibility mode selected!


Circuit: * ldo netlist 

Doing analysis at TEMP = 27.000000 and TNOM = 27.000000


No. of Data Rows : 1
bg_out = 1.194090e+00
inn = 1.224814e+00
inp = 1.224770e+00
l1#branch = 0.000000e+00
ldo_out = 1.796155e+00
m.xm1.msky130_fd_pr__nfet_g5v0d10v5#body = 1.404576e-11
m.xm1.msky130_fd_pr__nfet_g5v0d10v5#dbody = 2.663436e-11
m.xm1.msky130_fd_pr__nfet_g5v0d10v5#sbody = 1.550293e-11
m.xm2.msky130_fd_pr__pfet_g5v0d10v5#body = 2.100000e+00
m.xm2.msky130_fd_pr__pfet_g5v0d10v5#dbody = 2.100000e+00
m.xm2.msky130_fd_pr__pfet_g5v0d10v5#sbody = 2.100000e+00
m.xm3.msky130_fd_pr__pfet_g5v0d10v5#body = 2.100000e+00
m.xm3.msky130_fd_pr__pfet_g5v0d10v5#dbody = 2.100000e+00
m.xm3.msky130_fd_pr__pfet_g5v0d10v5#sbody = 2.100000e+00
m.xm4.msky130_fd_pr__pfet_g5v0d10v5#body = 2.100000e+00
m.xm4.msky130_fd_pr__pfet_g5v0d10v5#dbody = 2.100000e+00
m.xm4.msky130_fd_pr__pfet_g5v0d10v5#sbody = 2.100000e+00
m.xm5.msky130_fd_pr__pfet_g5v0d10v5#body = 2.100000e+00
m.xm5.msky130_fd_pr__pfet_g5v0d10v5#dbody = 2.100000e+00
m.xm5.msky130_fd_pr__pfet_g5v0d10v5#sbody = 2.100000e+00
m.xm6.msky130_fd_pr__nfet_g5v0d10v5#body = 1.111881e-11
m.xm6.msky130_fd_pr__nfet_g5v0d10v5#dbody = 2.779702e-11
m.xm6.msky130_fd_pr__nfet_g5v0d10v5#sbody = 5.559410e-12
m.xm7.msky130_fd_pr__pfet_g5v0d10v5#body = 2.100000e+00
m.xm7.msky130_fd_pr__pfet_g5v0d10v5#dbody = 2.100000e+00
m.xm7.msky130_fd_pr__pfet_g5v0d10v5#sbody = 2.100000e+00
m.xm8.msky130_fd_pr__pfet_g5v0d10v5#body = 2.100000e+00
m.xm8.msky130_fd_pr__pfet_g5v0d10v5#dbody = 2.100000e+00
m.xm8.msky130_fd_pr__pfet_g5v0d10v5#sbody = 2.100000e+00
m.xm9.msky130_fd_pr__nfet_g5v0d10v5#body = 1.473565e-11
m.xm9.msky130_fd_pr__nfet_g5v0d10v5#dbody = 2.923780e-11
m.xm9.msky130_fd_pr__nfet_g5v0d10v5#sbody = 1.496916e-11
m.xm10.msky130_fd_pr__nfet_g5v0d10v5#body = 1.461049e-11
m.xm10.msky130_fd_pr__nfet_g5v0d10v5#dbody = 2.892488e-11
m.xm10.msky130_fd_pr__nfet_g5v0d10v5#sbody = 1.490658e-11
m.xm11.msky130_fd_pr__pfet_g5v0d10v5#body = 2.100000e+00
m.xm11.msky130_fd_pr__pfet_g5v0d10v5#dbody = 2.100000e+00
m.xm11.msky130_fd_pr__pfet_g5v0d10v5#sbody = 2.100000e+00
m.xm12.msky130_fd_pr__pfet_g5v0d10v5#body = 2.100000e+00
m.xm12.msky130_fd_pr__pfet_g5v0d10v5#dbody = 2.100000e+00
m.xm12.msky130_fd_pr__pfet_g5v0d10v5#sbody = 2.100000e+00
m.xm13.msky130_fd_pr__nfet_g5v0d10v5#body = 3.799308e-12
m.xm13.msky130_fd_pr__nfet_g5v0d10v5#dbody = 9.498259e-12
m.xm13.msky130_fd_pr__nfet_g5v0d10v5#sbody = 1.899665e-12
m.xm14.msky130_fd_pr__pfet_g5v0d10v5#body = 2.100000e+00
m.xm14.msky130_fd_pr__pfet_g5v0d10v5#dbody = 2.100000e+00
m.xm14.msky130_fd_pr__pfet_g5v0d10v5#sbody = 2.100000e+00
m.xm15.msky130_fd_pr__nfet_g5v0d10v5#body = 2.147256e-18
m.xm15.msky130_fd_pr__nfet_g5v0d10v5#dbody = 5.367935e-18
m.xm15.msky130_fd_pr__nfet_g5v0d10v5#sbody = 1.073831e-18
m.xm16.msky130_fd_pr__nfet_g5v0d10v5#body = 4.156880e-11
m.xm16.msky130_fd_pr__nfet_g5v0d10v5#dbody = 7.329303e-11
m.xm16.msky130_fd_pr__nfet_g5v0d10v5#sbody = 5.141338e-11
m.xm17.msky130_fd_pr__pfet_g5v0d10v5#body = 2.100000e+00
m.xm17.msky130_fd_pr__pfet_g5v0d10v5#dbody = 2.100000e+00
m.xm17.msky130_fd_pr__pfet_g5v0d10v5#sbody = 2.100000e+00
m.xm18.msky130_fd_pr__nfet_g5v0d10v5#body = 1.111695e-11
m.xm18.msky130_fd_pr__nfet_g5v0d10v5#dbody = 2.779235e-11
m.xm18.msky130_fd_pr__nfet_g5v0d10v5#sbody = 5.558486e-12
m.xm19.msky130_fd_pr__nfet_g5v0d10v5#body = 1.409012e-11
m.xm19.msky130_fd_pr__nfet_g5v0d10v5#dbody = 2.674525e-11
m.xm19.msky130_fd_pr__nfet_g5v0d10v5#sbody = 1.552511e-11
m.xm20.msky130_fd_pr__nfet_g5v0d10v5#body = 1.103544e-11
m.xm20.msky130_fd_pr__nfet_g5v0d10v5#dbody = 2.758860e-11
m.xm20.msky130_fd_pr__nfet_g5v0d10v5#sbody = 5.517734e-12
m.xm22.msky130_fd_pr__nfet_g5v0d10v5#body = 4.242736e-12
m.xm22.msky130_fd_pr__nfet_g5v0d10v5#dbody = 1.060684e-11
m.xm22.msky130_fd_pr__nfet_g5v0d10v5#sbody = 2.121373e-12
m.xm24.msky130_fd_pr__pfet_g5v0d10v5#body = 2.100000e+00
m.xm24.msky130_fd_pr__pfet_g5v0d10v5#dbody = 2.100000e+00
m.xm24.msky130_fd_pr__pfet_g5v0d10v5#sbody = 2.100000e+00
m.xm26.msky130_fd_pr__pfet_g5v0d10v5#body = 2.100000e+00
m.xm26.msky130_fd_pr__pfet_g5v0d10v5#dbody = 2.100000e+00
m.xm26.msky130_fd_pr__pfet_g5v0d10v5#sbody = 2.100000e+00
mir = 7.841140e-01
net1 = 7.262658e-01
net2 = 1.652274e-07
net3 = 7.859640e-01
net4 = 3.388566e-01
net5 = 7.876626e-01
net6 = 8.889424e-01
net7 = 7.859192e-01
net8 = 8.645490e-01
net9 = 8.745623e-01
net10 = 3.038165e-01
net11 = 8.892275e-01
net12 = 8.892275e-01
net13 = 0.000000e+00
out = 8.892275e-01
pos = 1.194217e+00
q.xq2.qsky130_fd_pr__pnp_05v5_w0p68l0p68#collcx = 2.181138e-03
q.xq3.qsky130_fd_pr__pnp_05v5_w0p68l0p68#collcx = 2.747741e-04
q.xq4.qsky130_fd_pr__pnp_05v5_w0p68l0p68#collcx = 2.747741e-04
q.xq8.qsky130_fd_pr__pnp_05v5_w0p68l0p68#collcx = 2.747741e-04
q.xq10.qsky130_fd_pr__pnp_05v5_w0p68l0p68#collcx = 2.747741e-04
q.xq12.qsky130_fd_pr__pnp_05v5_w0p68l0p68#collcx = 2.747741e-04
q.xq14.qsky130_fd_pr__pnp_05v5_w0p68l0p68#collcx = 2.747741e-04
q.xq16.qsky130_fd_pr__pnp_05v5_w0p68l0p68#collcx = 2.747741e-04
q.xq18.qsky130_fd_pr__pnp_05v5_w0p68l0p68#collcx = 2.747741e-04
vb = 8.827073e-01
vdd = 2.100000e+00
vs#branch = -1.01050e-02
vt#branch = 0.000000e+00
xc1.a = 0.000000e+00
xc1.b1 = 0.000000e+00
xc3.a = 8.892275e-01
xc3.b1 = 8.892275e-01
xr1.xsky130_fd_pr__res_xhigh_po_0p69.ra = 7.912442e-01
xr2.xsky130_fd_pr__res_xhigh_po_0p69.ra = 7.912889e-01
xr3.xsky130_fd_pr__res_xhigh_po_0p69.ra = 3.606084e-03
xr4.xsky130_fd_pr__res_xhigh_po_0p69.ra = 7.280545e-01
xr5.xsky130_fd_pr__res_xhigh_po_0p69.ra = 3.605865e-03
xr6.xsky130_fd_pr__res_xhigh_po_0p69.ra = 5.661217e-03
xr7.xsky130_fd_pr__res_xhigh_po_0p69.ra = 8.892275e-01
xr8.xsky130_fd_pr__res_xhigh_po_0p69.ra = 1.203632e+00
xr9.xsky130_fd_pr__res_xhigh_po_0p69.ra = 9.873174e-03
Doing analysis at TEMP = 27.000000 and TNOM = 27.000000


No. of Data Rows : 91
Note: Starting true gmin stepping
Trying gmin =   1.0000E-03 Note: One successful gmin step
Trying gmin =   1.0000E-04 Note: One successful gmin step
Trying gmin =   1.0000E-05 Note: One successful gmin step
Trying gmin =   1.0000E-06 Note: One successful gmin step
Trying gmin =   1.0000E-07 Note: One successful gmin step
Trying gmin =   1.0000E-08 Warning: Further gmin increment
Trying gmin =   5.6234E-08 Note: One successful gmin step
Trying gmin =   2.3714E-08 Warning: Further gmin increment
Trying gmin =   4.5316E-08 Warning: Further gmin increment
Trying gmin =   5.3280E-08 Note: One successful gmin step
Trying gmin =   4.9137E-08 Note: One successful gmin step
Trying gmin =   4.3518E-08 Warning: Further gmin increment
Trying gmin =   4.7668E-08 Note: One successful gmin step
Trying gmin =   4.5546E-08 Note: One successful gmin step
Trying gmin =   4.2539E-08 Note: One successful gmin step
Trying gmin =   3.8396E-08 Note: One successful gmin step
Trying gmin =   3.2927E-08 Note: One successful gmin step
Trying gmin =   2.6148E-08 Note: One successful gmin step
Trying gmin =   1.8504E-08 Note: One successful gmin step
Trying gmin =   1.1016E-08 Note: One successful gmin step
Trying gmin =   5.0598E-09 Note: One successful gmin step
Trying gmin =   1.5751E-09 Note: One successful gmin step
Trying gmin =   2.7357E-10 Note: One successful gmin step
Trying gmin =   2.7357E-11 Note: One successful gmin step
Trying gmin =   2.7357E-12 Note: One successful gmin step
Trying gmin =   1.0000E-12 Note: One successful gmin step
Note: True gmin stepping completed
 Reference value :  1.54000e+00Note: Starting true gmin stepping
Trying gmin =   1.0000E-03 Note: One successful gmin step
Trying gmin =   1.0000E-04 Note: One successful gmin step
Trying gmin =   1.0000E-05 Note: One successful gmin step
Trying gmin =   1.0000E-06 Note: One successful gmin step
Trying gmin =   1.0000E-07 Warning: Further gmin increment
Trying gmin =   5.6234E-07 Note: One successful gmin step
Trying gmin =   2.3714E-07 Note: One successful gmin step
Trying gmin =   6.4938E-08 Note: One successful gmin step
Trying gmin =   9.3057E-09 Warning: Further gmin increment
Trying gmin =   3.9954E-08 Warning: Further gmin increment
Trying gmin =   5.7513E-08 Note: One successful gmin step
Trying gmin =   4.7936E-08 Note: One successful gmin step
Trying gmin =   3.6476E-08 Warning: Further gmin increment
Trying gmin =   4.4771E-08 Note: One successful gmin step
Trying gmin =   4.0412E-08 Note: One successful gmin step
Trying gmin =   3.4655E-08 Note: One successful gmin step
Trying gmin =   2.7520E-08 Note: One successful gmin step
Trying gmin =   1.9475E-08 Note: One successful gmin step
Trying gmin =   1.1594E-08 Note: One successful gmin step
Trying gmin =   5.3253E-09 Note: One successful gmin step
Trying gmin =   1.6578E-09 Note: One successful gmin step
Trying gmin =   2.8793E-10 Note: One successful gmin step
Trying gmin =   2.8793E-11 Note: One successful gmin step
Trying gmin =   2.8793E-12 Note: One successful gmin step
Trying gmin =   1.0000E-12 Note: One successful gmin step
Note: True gmin stepping completed
 Reference value :  7.20000e-01pm                  =  -7.764319e+01
Doing analysis at TEMP = 27.000000 and TNOM = 27.000000


No. of Data Rows : 91
psrr100             =  -6.268189e+01
psrr100k            =  -2.654892e+01
Doing analysis at TEMP = 27.000000 and TNOM = 27.000000


No. of Data Rows : 86
temp_coeff = 1.263306e+02
Doing analysis at TEMP = 27.000000 and TNOM = 27.000000


No. of Data Rows : 141
vldo_sup_2          =  1.796019e+00
vldo_sup_2_8        =  1.796221e+00
line_reg = 2.525000e-04
Note: No ".plot", ".print", or ".fourier" lines; no simulations run
vin                 =  1.786373e+00
dropout = 2.237300e-02
