 Reference value :  0.00000e+00
No compatibility mode selected!


Circuit: * ldo netlist 

Doing analysis at TEMP = 85.000000 and TNOM = 27.000000


No. of Data Rows : 1
bg_out = 1.200084e+00
inn = 1.146424e+00
inp = 1.146369e+00
l1#branch = 0.000000e+00
ldo_out = 1.805739e+00
m.xm1.msky130_fd_pr__nfet_g5v0d10v5#body = 2.906350e-11
m.xm1.msky130_fd_pr__nfet_g5v0d10v5#dbody = 5.626322e-11
m.xm1.msky130_fd_pr__nfet_g5v0d10v5#sbody = 3.092727e-11
m.xm2.msky130_fd_pr__pfet_g5v0d10v5#body = 2.300000e+00
m.xm2.msky130_fd_pr__pfet_g5v0d10v5#dbody = 2.300000e+00
m.xm2.msky130_fd_pr__pfet_g5v0d10v5#sbody = 2.300000e+00
m.xm3.msky130_fd_pr__pfet_g5v0d10v5#body = 2.300000e+00
m.xm3.msky130_fd_pr__pfet_g5v0d10v5#dbody = 2.300000e+00
m.xm3.msky130_fd_pr__pfet_g5v0d10v5#sbody = 2.300000e+00
m.xm4.msky130_fd_pr__pfet_g5v0d10v5#body = 2.300000e+00
m.xm4.msky130_fd_pr__pfet_g5v0d10v5#dbody = 2.300000e+00
m.xm4.msky130_fd_pr__pfet_g5v0d10v5#sbody = 2.300000e+00
m.xm5.msky130_fd_pr__pfet_g5v0d10v5#body = 2.300000e+00
m.xm5.msky130_fd_pr__pfet_g5v0d10v5#dbody = 2.300000e+00
m.xm5.msky130_fd_pr__pfet_g5v0d10v5#sbody = 2.300000e+00
m.xm6.msky130_fd_pr__nfet_g5v0d10v5#body = 2.049906e-11
m.xm6.msky130_fd_pr__nfet_g5v0d10v5#dbody = 5.124755e-11
m.xm6.msky130_fd_pr__nfet_g5v0d10v5#sbody = 1.024965e-11
m.xm7.msky130_fd_pr__pfet_g5v0d10v5#body = 2.300000e+00
m.xm7.msky130_fd_pr__pfet_g5v0d10v5#dbody = 2.300000e+00
m.xm7.msky130_fd_pr__pfet_g5v0d10v5#sbody = 2.300000e+00
m.xm8.msky130_fd_pr__pfet_g5v0d10v5#body = 2.300000e+00
m.xm8.msky130_fd_pr__pfet_g5v0d10v5#dbody = 2.300000e+00
m.xm8.msky130_fd_pr__pfet_g5v0d10v5#sbody = 2.300000e+00
m.xm9.msky130_fd_pr__nfet_g5v0d10v5#body = 2.725053e-11
m.xm9.msky130_fd_pr__nfet_g5v0d10v5#dbody = 5.454145e-11
m.xm9.msky130_fd_pr__nfet_g5v0d10v5#sbody = 2.721013e-11
m.xm10.msky130_fd_pr__nfet_g5v0d10v5#body = 2.696352e-11
m.xm10.msky130_fd_pr__nfet_g5v0d10v5#dbody = 5.382394e-11
m.xm10.msky130_fd_pr__nfet_g5v0d10v5#sbody = 2.706663e-11
m.xm11.msky130_fd_pr__pfet_g5v0d10v5#body = 2.300000e+00
m.xm11.msky130_fd_pr__pfet_g5v0d10v5#dbody = 2.300000e+00
m.xm11.msky130_fd_pr__pfet_g5v0d10v5#sbody = 2.300000e+00
m.xm12.msky130_fd_pr__pfet_g5v0d10v5#body = 2.300000e+00
m.xm12.msky130_fd_pr__pfet_g5v0d10v5#dbody = 2.300000e+00
m.xm12.msky130_fd_pr__pfet_g5v0d10v5#sbody = 2.300000e+00
m.xm13.msky130_fd_pr__nfet_g5v0d10v5#body = 5.145573e-12
m.xm13.msky130_fd_pr__nfet_g5v0d10v5#dbody = 1.286387e-11
m.xm13.msky130_fd_pr__nfet_g5v0d10v5#sbody = 2.572853e-12
m.xm14.msky130_fd_pr__pfet_g5v0d10v5#body = 2.300000e+00
m.xm14.msky130_fd_pr__pfet_g5v0d10v5#dbody = 2.300000e+00
m.xm14.msky130_fd_pr__pfet_g5v0d10v5#sbody = 2.300000e+00
m.xm15.msky130_fd_pr__nfet_g5v0d10v5#body = 3.586391e-14
m.xm15.msky130_fd_pr__nfet_g5v0d10v5#dbody = 8.965831e-14
m.xm15.msky130_fd_pr__nfet_g5v0d10v5#sbody = 1.793341e-14
m.xm16.msky130_fd_pr__nfet_g5v0d10v5#body = 5.370886e-11
m.xm16.msky130_fd_pr__nfet_g5v0d10v5#dbody = 9.498299e-11
m.xm16.msky130_fd_pr__nfet_g5v0d10v5#sbody = 6.614359e-11
m.xm17.msky130_fd_pr__pfet_g5v0d10v5#body = 2.300000e+00
m.xm17.msky130_fd_pr__pfet_g5v0d10v5#dbody = 2.300000e+00
m.xm17.msky130_fd_pr__pfet_g5v0d10v5#sbody = 2.300000e+00
m.xm18.msky130_fd_pr__nfet_g5v0d10v5#body = 2.430074e-11
m.xm18.msky130_fd_pr__nfet_g5v0d10v5#dbody = 5.997394e-11
m.xm18.msky130_fd_pr__nfet_g5v0d10v5#sbody = 1.215045e-11
m.xm19.msky130_fd_pr__nfet_g5v0d10v5#body = 2.914479e-11
m.xm19.msky130_fd_pr__nfet_g5v0d10v5#dbody = 5.646644e-11
m.xm19.msky130_fd_pr__nfet_g5v0d10v5#sbody = 3.096791e-11
m.xm20.msky130_fd_pr__nfet_g5v0d10v5#body = 1.455784e-11
m.xm20.msky130_fd_pr__nfet_g5v0d10v5#dbody = 3.639452e-11
m.xm20.msky130_fd_pr__nfet_g5v0d10v5#sbody = 7.278995e-12
m.xm22.msky130_fd_pr__nfet_g5v0d10v5#body = 1.149020e-11
m.xm22.msky130_fd_pr__nfet_g5v0d10v5#dbody = 2.872539e-11
m.xm22.msky130_fd_pr__nfet_g5v0d10v5#sbody = 5.745206e-12
m.xm24.msky130_fd_pr__pfet_g5v0d10v5#body = 2.300000e+00
m.xm24.msky130_fd_pr__pfet_g5v0d10v5#dbody = 2.300000e+00
m.xm24.msky130_fd_pr__pfet_g5v0d10v5#sbody = 2.300000e+00
m.xm26.msky130_fd_pr__pfet_g5v0d10v5#body = 2.300000e+00
m.xm26.msky130_fd_pr__pfet_g5v0d10v5#dbody = 2.300000e+00
m.xm26.msky130_fd_pr__pfet_g5v0d10v5#sbody = 2.300000e+00
mir = 1.244116e+00
net1 = 6.298149e-01
net2 = 6.913716e-05
net3 = 7.033680e-01
net4 = 2.310858e-01
net5 = 1.250620e+00
net6 = 9.511347e-01
net7 = 7.033118e-01
net8 = 1.320367e+00
net9 = 1.343327e+00
net10 = 2.502320e-01
net11 = 1.751445e+00
net12 = 1.751445e+00
net13 = 0.000000e+00
out = 1.751445e+00
pos = 1.200344e+00
q.xq2.qsky130_fd_pr__pnp_05v5_w0p68l0p68#collcx = 2.963965e-03
q.xq3.qsky130_fd_pr__pnp_05v5_w0p68l0p68#collcx = 3.740962e-04
q.xq4.qsky130_fd_pr__pnp_05v5_w0p68l0p68#collcx = 3.740962e-04
q.xq8.qsky130_fd_pr__pnp_05v5_w0p68l0p68#collcx = 3.740962e-04
q.xq10.qsky130_fd_pr__pnp_05v5_w0p68l0p68#collcx = 3.740962e-04
q.xq12.qsky130_fd_pr__pnp_05v5_w0p68l0p68#collcx = 3.740962e-04
q.xq14.qsky130_fd_pr__pnp_05v5_w0p68l0p68#collcx = 3.740962e-04
q.xq16.qsky130_fd_pr__pnp_05v5_w0p68l0p68#collcx = 3.740962e-04
q.xq18.qsky130_fd_pr__pnp_05v5_w0p68l0p68#collcx = 3.740962e-04
vb = 1.003126e+00
vdd = 2.300000e+00
vs#branch = -1.87650e-04
vt#branch = 0.000000e+00
xc1.a = 0.000000e+00
xc1.b1 = 0.000000e+00
xc3.a = 1.751445e+00
xc3.b1 = 1.751445e+00
xr1.xsky130_fd_pr__res_xhigh_po_0p69.ra = 7.091270e-01
xr2.xsky130_fd_pr__res_xhigh_po_0p69.ra = 7.091832e-01
xr3.xsky130_fd_pr__res_xhigh_po_0p69.ra = 3.468009e-03
xr4.xsky130_fd_pr__res_xhigh_po_0p69.ra = 6.321945e-01
xr5.xsky130_fd_pr__res_xhigh_po_0p69.ra = 3.467716e-03
xr6.xsky130_fd_pr__res_xhigh_po_0p69.ra = 6.159165e-03
xr7.xsky130_fd_pr__res_xhigh_po_0p69.ra = 1.751445e+00
xr8.xsky130_fd_pr__res_xhigh_po_0p69.ra = 1.210583e+00
xr9.xsky130_fd_pr__res_xhigh_po_0p69.ra = 1.073974e-02
Doing analysis at TEMP = 85.000000 and TNOM = 27.000000


No. of Data Rows : 91
Note: Starting true gmin stepping
Trying gmin =   1.0000E-03 Note: One successful gmin step
Trying gmin =   1.0000E-04 Note: One successful gmin step
Trying gmin =   1.0000E-05 Note: One successful gmin step
Trying gmin =   1.0000E-06 Note: One successful gmin step
Trying gmin =   1.0000E-07 Note: One successful gmin step
Trying gmin =   1.0000E-08 Warning: Further gmin increment
Trying gmin =   5.6234E-08 Warning: Further gmin increment
Trying gmin =   8.6596E-08 Note: One successful gmin step
Trying gmin =   6.9783E-08 Warning: Further gmin increment
Trying gmin =   8.2047E-08 Note: One successful gmin step
Trying gmin =   7.5667E-08 Note: One successful gmin step
Trying gmin =   6.7015E-08 Warning: Further gmin increment
Trying gmin =   7.3404E-08 Warning: Further gmin increment
Trying gmin =   7.5095E-08 Note: One successful gmin step
Trying gmin =   7.4245E-08 Note: One successful gmin step
Trying gmin =   7.2988E-08 Note: One successful gmin step
Trying gmin =   7.1142E-08 Note: One successful gmin step
Trying gmin =   6.8461E-08 Note: One successful gmin step
Trying gmin =   6.4627E-08 Note: One successful gmin step
Trying gmin =   5.9275E-08 Note: One successful gmin step
Trying gmin =   5.2066E-08 Note: One successful gmin step
Trying gmin =   4.2863E-08 Note: One successful gmin step
Trying gmin =   3.2017E-08 Note: One successful gmin step
Trying gmin =   2.0669E-08 Note: One successful gmin step
Trying gmin =   1.0721E-08 Note: One successful gmin step
Trying gmin =   4.0050E-09 Note: One successful gmin step
Trying gmin =   9.1445E-10 Note: One successful gmin step
Trying gmin =   9.9768E-11 Note: One successful gmin step
Trying gmin =   9.9768E-12 Note: One successful gmin step
Trying gmin =   1.0000E-12 Note: One successful gmin step
Note: True gmin stepping completed
 Reference value :  2.80000e+00Note: Starting true gmin stepping
Trying gmin =   1.0000E-03 Note: One successful gmin step
Trying gmin =   1.0000E-04 Note: One successful gmin step
Trying gmin =   1.0000E-05 Note: One successful gmin step
Trying gmin =   1.0000E-06 Note: One successful gmin step
Trying gmin =   1.0000E-07 Note: One successful gmin step
Trying gmin =   1.0000E-08 Warning: Further gmin increment
Trying gmin =   5.6234E-08 Note: One successful gmin step
Trying gmin =   2.3714E-08 Note: One successful gmin step
Trying gmin =   6.4938E-09 Note: One successful gmin step
Trying gmin =   9.3057E-10 Note: One successful gmin step
Trying gmin =   9.3057E-11 Warning: Further gmin increment
Trying gmin =   5.2330E-10 Note: One successful gmin step
Trying gmin =   2.2067E-10 Warning: Further gmin increment
Trying gmin =   4.2170E-10 Note: One successful gmin step
Trying gmin =   3.0505E-10 Warning: Further gmin increment
Trying gmin =   3.8891E-10 Note: One successful gmin step
Trying gmin =   3.4444E-10 Note: One successful gmin step
Trying gmin =   2.8708E-10 Note: One successful gmin step
Trying gmin =   2.1845E-10 Note: One successful gmin step
Trying gmin =   1.4500E-10 Note: One successful gmin step
Trying gmin =   7.8417E-11 Note: One successful gmin step
Trying gmin =   3.1186E-11 Note: One successful gmin step
Trying gmin =   7.8213E-12 Note: One successful gmin step
Trying gmin =   1.0000E-12 Note: One successful gmin step
Note: True gmin stepping completed
 Reference value :  1.10000e+00Note: Starting true gmin stepping
Trying gmin =   1.0000E-03 Note: One successful gmin step
Trying gmin =   1.0000E-04 Note: One successful gmin step
Trying gmin =   1.0000E-05 Note: One successful gmin step
Trying gmin =   1.0000E-06 Note: One successful gmin step
Trying gmin =   1.0000E-07 Note: One successful gmin step
Trying gmin =   1.0000E-08 Note: One successful gmin step
Trying gmin =   3.1623E-09 Note: One successful gmin step
Trying gmin =   5.6234E-10 Note: One successful gmin step
Trying gmin =   5.6234E-11 Error: -4.75314e+185, 2 out of range for ^
Warning: Further gmin increment
Trying gmin =   3.1623E-10 Note: One successful gmin step
Trying gmin =   1.3335E-10 Warning: Further gmin increment
Trying gmin =   2.5483E-10 Note: One successful gmin step
Trying gmin =   1.8434E-10 Note: One successful gmin step
Trying gmin =   1.1342E-10 Note: One successful gmin step
Trying gmin =   5.4737E-11 Note: One successful gmin step
Trying gmin =   1.8352E-11 Note: One successful gmin step
Trying gmin =   3.5625E-12 Note: One successful gmin step
Trying gmin =   1.0000E-12 Note: One successful gmin step
Note: True gmin stepping completed
pm                  =  6.112553e+01
Doing analysis at TEMP = 85.000000 and TNOM = 27.000000


No. of Data Rows : 91
psrr100             =  -5.087830e+01
psrr100k            =  -2.530769e+01
Doing analysis at TEMP = 85.000000 and TNOM = 27.000000


No. of Data Rows : 86
temp_coeff = 1.296352e+02
Doing analysis at TEMP = 85.000000 and TNOM = 27.000000


No. of Data Rows : 141
vldo_sup_2          =  1.804556e+00
vldo_sup_2_8        =  1.806747e+00
line_reg = 2.738750e-03
Note: No ".plot", ".print", or ".fourier" lines; no simulations run
vin                 =  1.764116e+00
dropout = 1.160000e-04
