 Reference value :  0.00000e+00
No compatibility mode selected!


Circuit: * ldo netlist 

Doing analysis at TEMP = 27.000000 and TNOM = 27.000000


No. of Data Rows : 1
bg_out = 1.194132e+00
inn = 1.224933e+00
inp = 1.224919e+00
l1#branch = 0.000000e+00
ldo_out = 1.796287e+00
m.xm1.msky130_fd_pr__nfet_g5v0d10v5#body = 1.969255e-11
m.xm1.msky130_fd_pr__nfet_g5v0d10v5#dbody = 4.196782e-11
m.xm1.msky130_fd_pr__nfet_g5v0d10v5#sbody = 1.710983e-11
m.xm2.msky130_fd_pr__pfet_g5v0d10v5#body = 2.500000e+00
m.xm2.msky130_fd_pr__pfet_g5v0d10v5#dbody = 2.500000e+00
m.xm2.msky130_fd_pr__pfet_g5v0d10v5#sbody = 2.500000e+00
m.xm3.msky130_fd_pr__pfet_g5v0d10v5#body = 2.500000e+00
m.xm3.msky130_fd_pr__pfet_g5v0d10v5#dbody = 2.500000e+00
m.xm3.msky130_fd_pr__pfet_g5v0d10v5#sbody = 2.500000e+00
m.xm4.msky130_fd_pr__pfet_g5v0d10v5#body = 2.500000e+00
m.xm4.msky130_fd_pr__pfet_g5v0d10v5#dbody = 2.500000e+00
m.xm4.msky130_fd_pr__pfet_g5v0d10v5#sbody = 2.500000e+00
m.xm5.msky130_fd_pr__pfet_g5v0d10v5#body = 2.500000e+00
m.xm5.msky130_fd_pr__pfet_g5v0d10v5#dbody = 2.500000e+00
m.xm5.msky130_fd_pr__pfet_g5v0d10v5#sbody = 2.500000e+00
m.xm6.msky130_fd_pr__nfet_g5v0d10v5#body = 1.175952e-11
m.xm6.msky130_fd_pr__nfet_g5v0d10v5#dbody = 2.939881e-11
m.xm6.msky130_fd_pr__nfet_g5v0d10v5#sbody = 5.879767e-12
m.xm7.msky130_fd_pr__pfet_g5v0d10v5#body = 2.500000e+00
m.xm7.msky130_fd_pr__pfet_g5v0d10v5#dbody = 2.500000e+00
m.xm7.msky130_fd_pr__pfet_g5v0d10v5#sbody = 2.500000e+00
m.xm8.msky130_fd_pr__pfet_g5v0d10v5#body = 2.500000e+00
m.xm8.msky130_fd_pr__pfet_g5v0d10v5#dbody = 2.500000e+00
m.xm8.msky130_fd_pr__pfet_g5v0d10v5#sbody = 2.500000e+00
m.xm9.msky130_fd_pr__nfet_g5v0d10v5#body = 2.032495e-11
m.xm9.msky130_fd_pr__nfet_g5v0d10v5#dbody = 4.446195e-11
m.xm9.msky130_fd_pr__nfet_g5v0d10v5#sbody = 1.651289e-11
m.xm10.msky130_fd_pr__nfet_g5v0d10v5#body = 2.008595e-11
m.xm10.msky130_fd_pr__nfet_g5v0d10v5#dbody = 4.386444e-11
m.xm10.msky130_fd_pr__nfet_g5v0d10v5#sbody = 1.639339e-11
m.xm11.msky130_fd_pr__pfet_g5v0d10v5#body = 2.500000e+00
m.xm11.msky130_fd_pr__pfet_g5v0d10v5#dbody = 2.500000e+00
m.xm11.msky130_fd_pr__pfet_g5v0d10v5#sbody = 2.500000e+00
m.xm12.msky130_fd_pr__pfet_g5v0d10v5#body = 2.500000e+00
m.xm12.msky130_fd_pr__pfet_g5v0d10v5#dbody = 2.500000e+00
m.xm12.msky130_fd_pr__pfet_g5v0d10v5#sbody = 2.500000e+00
m.xm13.msky130_fd_pr__nfet_g5v0d10v5#body = 3.173851e-12
m.xm13.msky130_fd_pr__nfet_g5v0d10v5#dbody = 7.934617e-12
m.xm13.msky130_fd_pr__nfet_g5v0d10v5#sbody = 1.586936e-12
m.xm14.msky130_fd_pr__pfet_g5v0d10v5#body = 2.500000e+00
m.xm14.msky130_fd_pr__pfet_g5v0d10v5#dbody = 2.500000e+00
m.xm14.msky130_fd_pr__pfet_g5v0d10v5#sbody = 2.500000e+00
m.xm15.msky130_fd_pr__nfet_g5v0d10v5#body = 6.353568e-16
m.xm15.msky130_fd_pr__nfet_g5v0d10v5#dbody = 1.588350e-15
m.xm15.msky130_fd_pr__nfet_g5v0d10v5#sbody = 3.177208e-16
m.xm16.msky130_fd_pr__nfet_g5v0d10v5#body = 4.657036e-11
m.xm16.msky130_fd_pr__nfet_g5v0d10v5#dbody = 8.579387e-11
m.xm16.msky130_fd_pr__nfet_g5v0d10v5#sbody = 5.391720e-11
m.xm17.msky130_fd_pr__pfet_g5v0d10v5#body = 2.500000e+00
m.xm17.msky130_fd_pr__pfet_g5v0d10v5#dbody = 2.500000e+00
m.xm17.msky130_fd_pr__pfet_g5v0d10v5#sbody = 2.500000e+00
m.xm18.msky130_fd_pr__nfet_g5v0d10v5#body = 2.181649e-11
m.xm18.msky130_fd_pr__nfet_g5v0d10v5#dbody = 5.376670e-11
m.xm18.msky130_fd_pr__nfet_g5v0d10v5#sbody = 1.090826e-11
m.xm19.msky130_fd_pr__nfet_g5v0d10v5#body = 1.971733e-11
m.xm19.msky130_fd_pr__nfet_g5v0d10v5#dbody = 4.202976e-11
m.xm19.msky130_fd_pr__nfet_g5v0d10v5#sbody = 1.712222e-11
m.xm20.msky130_fd_pr__nfet_g5v0d10v5#body = 1.203144e-11
m.xm20.msky130_fd_pr__nfet_g5v0d10v5#dbody = 3.007858e-11
m.xm20.msky130_fd_pr__nfet_g5v0d10v5#sbody = 6.015732e-12
m.xm22.msky130_fd_pr__nfet_g5v0d10v5#body = 3.634491e-12
m.xm22.msky130_fd_pr__nfet_g5v0d10v5#dbody = 9.086222e-12
m.xm22.msky130_fd_pr__nfet_g5v0d10v5#sbody = 1.817250e-12
m.xm24.msky130_fd_pr__pfet_g5v0d10v5#body = 2.500000e+00
m.xm24.msky130_fd_pr__pfet_g5v0d10v5#dbody = 2.500000e+00
m.xm24.msky130_fd_pr__pfet_g5v0d10v5#sbody = 2.500000e+00
m.xm26.msky130_fd_pr__pfet_g5v0d10v5#body = 2.500000e+00
m.xm26.msky130_fd_pr__pfet_g5v0d10v5#dbody = 2.500000e+00
m.xm26.msky130_fd_pr__pfet_g5v0d10v5#sbody = 2.500000e+00
mir = 1.284514e+00
net1 = 7.262760e-01
net2 = 4.888707e-05
net3 = 7.859789e-01
net4 = 2.901945e-01
net5 = 1.286496e+00
net6 = 9.401971e-01
net7 = 7.859641e-01
net8 = 1.352620e+00
net9 = 1.371740e+00
net10 = 2.537775e-01
net11 = 1.714208e+00
net12 = 1.714208e+00
net13 = 0.000000e+00
out = 1.714208e+00
pos = 1.194305e+00
q.xq2.qsky130_fd_pr__pnp_05v5_w0p68l0p68#collcx = 2.182556e-03
q.xq3.qsky130_fd_pr__pnp_05v5_w0p68l0p68#collcx = 2.749338e-04
q.xq4.qsky130_fd_pr__pnp_05v5_w0p68l0p68#collcx = 2.749338e-04
q.xq8.qsky130_fd_pr__pnp_05v5_w0p68l0p68#collcx = 2.749338e-04
q.xq10.qsky130_fd_pr__pnp_05v5_w0p68l0p68#collcx = 2.749338e-04
q.xq12.qsky130_fd_pr__pnp_05v5_w0p68l0p68#collcx = 2.749338e-04
q.xq14.qsky130_fd_pr__pnp_05v5_w0p68l0p68#collcx = 2.749338e-04
q.xq16.qsky130_fd_pr__pnp_05v5_w0p68l0p68#collcx = 2.749338e-04
q.xq18.qsky130_fd_pr__pnp_05v5_w0p68l0p68#collcx = 2.749338e-04
vb = 9.623845e-01
vdd = 2.500000e+00
vs#branch = -1.76968e-04
vt#branch = 0.000000e+00
xc1.a = 0.000000e+00
xc1.b1 = 0.000000e+00
xc3.a = 1.714208e+00
xc3.b1 = 1.714208e+00
xr1.xsky130_fd_pr__res_xhigh_po_0p69.ra = 7.912904e-01
xr2.xsky130_fd_pr__res_xhigh_po_0p69.ra = 7.913052e-01
xr3.xsky130_fd_pr__res_xhigh_po_0p69.ra = 3.606158e-03
xr4.xsky130_fd_pr__res_xhigh_po_0p69.ra = 7.280657e-01
xr5.xsky130_fd_pr__res_xhigh_po_0p69.ra = 3.606085e-03
xr6.xsky130_fd_pr__res_xhigh_po_0p69.ra = 5.661457e-03
xr7.xsky130_fd_pr__res_xhigh_po_0p69.ra = 1.714208e+00
xr8.xsky130_fd_pr__res_xhigh_po_0p69.ra = 1.203720e+00
xr9.xsky130_fd_pr__res_xhigh_po_0p69.ra = 9.874004e-03
Doing analysis at TEMP = 27.000000 and TNOM = 27.000000


No. of Data Rows : 91
 Reference value :  3.50000e+01Note: Starting true gmin stepping
Trying gmin =   1.0000E-03 Note: One successful gmin step
Trying gmin =   1.0000E-04 Note: One successful gmin step
Trying gmin =   1.0000E-05 Note: One successful gmin step
Trying gmin =   1.0000E-06 Note: One successful gmin step
Trying gmin =   1.0000E-07 Note: One successful gmin step
Trying gmin =   1.0000E-08 Warning: Further gmin increment
Trying gmin =   5.6234E-08 Warning: Further gmin increment
Trying gmin =   8.6596E-08 Note: One successful gmin step
Trying gmin =   6.9783E-08 Note: One successful gmin step
Trying gmin =   5.0481E-08 Warning: Further gmin increment
Trying gmin =   6.4357E-08 Note: One successful gmin step
Trying gmin =   5.6998E-08 Note: One successful gmin step
Trying gmin =   4.7507E-08 Warning: Further gmin increment
Trying gmin =   5.4461E-08 Warning: Further gmin increment
Trying gmin =   5.6353E-08 Note: One successful gmin step
Trying gmin =   5.5399E-08 Warning: Further gmin increment
Trying gmin =   5.6113E-08 Warning: Further gmin increment
Trying gmin =   5.6293E-08 Warning: Further gmin increment
Trying gmin =   5.6338E-08 Note: One successful gmin step
Trying gmin =   5.6315E-08 Warning: Further gmin increment
Trying gmin =   5.6332E-08 Note: One successful gmin step
Trying gmin =   5.6324E-08 Warning: Further gmin increment
Trying gmin =   5.6330E-08 Note: One successful gmin step
Trying gmin =   5.6327E-08 Note: One successful gmin step
Trying gmin =   5.6322E-08 Warning: Further gmin increment
Trying gmin =   5.6326E-08 Warning: Last gmin step failed
Warning: True gmin stepping failed
Note: Starting dynamic gmin stepping
Trying gmin =   1.0000E-03 Note: One successful gmin step
Trying gmin =   1.0000E-04 Note: One successful gmin step
Trying gmin =   1.0000E-05 Warning: Further gmin increment
Trying gmin =   5.6234E-05 Note: One successful gmin step
Trying gmin =   2.3714E-05 Note: One successful gmin step
Trying gmin =   6.4938E-06 Note: One successful gmin step
Trying gmin =   1.7783E-06 Note: One successful gmin step
Trying gmin =   9.3057E-07 Note: One successful gmin step
Trying gmin =   3.5227E-07 Note: One successful gmin step
Trying gmin =   8.2047E-08 Warning: Further gmin increment
Trying gmin =   2.4472E-07 Warning: Further gmin increment
Trying gmin =   3.2161E-07 Note: One successful gmin step
Trying gmin =   2.8054E-07 Note: One successful gmin step
Trying gmin =   2.2856E-07 Warning: Further gmin increment
Trying gmin =   2.6653E-07 Note: One successful gmin step
Trying gmin =   2.4682E-07 Warning: Further gmin increment
Trying gmin =   2.6146E-07 Note: One successful gmin step
Trying gmin =   2.5404E-07 Warning: Further gmin increment
Trying gmin =   2.5958E-07 Warning: Further gmin increment
Trying gmin =   2.6099E-07 Note: One successful gmin step
Trying gmin =   2.6029E-07 Warning: Further gmin increment
Trying gmin =   2.6081E-07 Note: One successful gmin step
Trying gmin =   2.6055E-07 Warning: Further gmin increment
Trying gmin =   2.6075E-07 Note: One successful gmin step
Trying gmin =   2.6065E-07 Note: One successful gmin step
Trying gmin =   2.6050E-07 Warning: Further gmin increment
Trying gmin =   2.6061E-07 Note: One successful gmin step
Trying gmin =   2.6056E-07 Warning: Further gmin increment
Trying gmin =   2.6060E-07 Warning: Further gmin increment
Trying gmin =   2.6061E-07 Note: One successful gmin step
Trying gmin =   2.6060E-07 Note: One successful gmin step
Trying gmin =   2.6060E-07 Warning: Last gmin step failed
Warning: Dynamic gmin stepping failed
Note: Starting source stepping
Supplies reduced to   0.0000% Note: One successful source step
Supplies reduced to   0.1000% Note: One successful source step
Supplies reduced to   0.2000% Note: One successful source step
Supplies reduced to   0.3500% Note: One successful source step
Supplies reduced to   0.5750% Note: One successful source step
Supplies reduced to   0.9125% Note: One successful source step
Supplies reduced to   1.4188% Note: One successful source step
Supplies reduced to   2.1781% Note: One successful source step
Supplies reduced to   3.3172% Note: One successful source step
Supplies reduced to   5.0258% Note: One successful source step
Supplies reduced to   7.5887% Note: One successful source step
Supplies reduced to  11.4330% Note: One successful source step
Supplies reduced to  17.1995% Note: One successful source step
Supplies reduced to  25.8493% Supplies reduced to  17.1995% Note: One successful source step
Supplies reduced to  18.1995% Note: One successful source step
Supplies reduced to  19.6995% Note: One successful source step
Supplies reduced to  21.9495% Note: One successful source step
Supplies reduced to  25.3245% Note: One successful source step
Supplies reduced to  30.3870% Note: One successful source step
Supplies reduced to  35.4495% Note: One successful source step
Supplies reduced to  43.0433% Note: One successful source step
Supplies reduced to  54.4339% Note: One successful source step
Supplies reduced to  71.5198% Note: One successful source step
Supplies reduced to  97.1487% Supplies reduced to  71.5198% Note: One successful source step
Supplies reduced to  72.5198% Supplies reduced to  71.5198% Note: One successful source step
Supplies reduced to  71.6698% Note: One successful source step
Supplies reduced to  71.8948% Note: One successful source step
Supplies reduced to  72.2323% Note: One successful source step
Supplies reduced to  72.7386% Supplies reduced to  72.2323% Note: One successful source step
Supplies reduced to  72.3083% Note: One successful source step
Supplies reduced to  72.4222% Note: One successful source step
Supplies reduced to  72.5930% Supplies reduced to  72.4222% Note: One successful source step
Supplies reduced to  72.4478% Note: One successful source step
Supplies reduced to  72.4862% Supplies reduced to  72.4478% Note: One successful source step
Supplies reduced to  72.4536% Note: One successful source step
Supplies reduced to  72.4622% Note: One successful source step
Supplies reduced to  72.4752% Supplies reduced to  72.4622% Note: One successful source step
Supplies reduced to  72.4642% Note: One successful source step
Supplies reduced to  72.4671% Note: One successful source step
Supplies reduced to  72.4715% Supplies reduced to  72.4671% Note: One successful source step
Supplies reduced to  72.4677% Note: One successful source step
Supplies reduced to  72.4687% Note: One successful source step
Supplies reduced to  72.4702% Supplies reduced to  72.4687% Note: One successful source step
Supplies reduced to  72.4689% Note: One successful source step
Supplies reduced to  72.4693% Note: One successful source step
Supplies reduced to  72.4698% Supplies reduced to  72.4693% Note: One successful source step
Supplies reduced to  72.4693% Note: One successful source step
Supplies reduced to  72.4695% Note: One successful source step
Supplies reduced to  72.4696% Note: One successful source step
Supplies reduced to  72.4699% Supplies reduced to  72.4696% Note: One successful source step
Supplies reduced to  72.4697% Note: One successful source step
Supplies reduced to  72.4697% Warning: source stepping failed
doAnalyses: Too many iterations without convergence

dc simulation(s) aborted
Error(parse.c--checkvalid): vldo_sup_2_8: zero length vector.
Error: RHS "abs((vldo_sup_2_8-vldo_sup_2)/0.8)" invalid
Error(parse.c--checkvalid): line_reg: zero length vector.
Error(parse.c--checkvalid): vin: zero length vector.
Error: RHS "vin-1.764" invalid
Error(parse.c--checkvalid): dropout: zero length vector.
Error: no such vector dropout
Note: No ".plot", ".print", or ".fourier" lines; no simulations run
pm                  =  5.266121e+01
Doing analysis at TEMP = 27.000000 and TNOM = 27.000000


No. of Data Rows : 91
psrr100             =  -8.147494e+01
psrr100k            =  -2.680757e+01
Doing analysis at TEMP = 27.000000 and TNOM = 27.000000


No. of Data Rows : 86
temp_coeff = 1.429046e+02
Doing analysis at TEMP = 27.000000 and TNOM = 27.000000


Error: measure  vldo_sup_2  (AT) : out of interval
 meas dc vldo_sup_2 find ldo_out at=2 failed!


Error: measure  vldo_sup_2_8  (AT) : out of interval
 meas dc vldo_sup_2_8 find ldo_out at=2.8 failed!


Error: measure  vin  (WHEN) : out of interval
 meas dc vin when v(ldo_out)=1.764 failed!

