 Reference value :  0.00000e+00
No compatibility mode selected!


Circuit: * ldo netlist 

Doing analysis at TEMP = 85.000000 and TNOM = 27.000000


No. of Data Rows : 1
bg_out = 1.105419e+00
inn = 1.072095e+00
inp = 1.071987e+00
l1#branch = 2.775558e-17
ldo_out = 1.817747e+00
m.xm1.msky130_fd_pr__nfet_g5v0d10v5#body = 2.880508e-11
m.xm1.msky130_fd_pr__nfet_g5v0d10v5#dbody = 5.669761e-11
m.xm1.msky130_fd_pr__nfet_g5v0d10v5#sbody = 2.971762e-11
m.xm2.msky130_fd_pr__pfet_g5v0d10v5#body = 2.500000e+00
m.xm2.msky130_fd_pr__pfet_g5v0d10v5#dbody = 2.500000e+00
m.xm2.msky130_fd_pr__pfet_g5v0d10v5#sbody = 2.500000e+00
m.xm3.msky130_fd_pr__pfet_g5v0d10v5#body = 2.500000e+00
m.xm3.msky130_fd_pr__pfet_g5v0d10v5#dbody = 2.500000e+00
m.xm3.msky130_fd_pr__pfet_g5v0d10v5#sbody = 2.500000e+00
m.xm4.msky130_fd_pr__pfet_g5v0d10v5#body = 2.500000e+00
m.xm4.msky130_fd_pr__pfet_g5v0d10v5#dbody = 2.500000e+00
m.xm4.msky130_fd_pr__pfet_g5v0d10v5#sbody = 2.500000e+00
m.xm5.msky130_fd_pr__pfet_g5v0d10v5#body = 2.500000e+00
m.xm5.msky130_fd_pr__pfet_g5v0d10v5#dbody = 2.500000e+00
m.xm5.msky130_fd_pr__pfet_g5v0d10v5#sbody = 2.500000e+00
m.xm6.msky130_fd_pr__nfet_g5v0d10v5#body = 2.041052e-11
m.xm6.msky130_fd_pr__nfet_g5v0d10v5#dbody = 5.102618e-11
m.xm6.msky130_fd_pr__nfet_g5v0d10v5#sbody = 1.020538e-11
m.xm7.msky130_fd_pr__pfet_g5v0d10v5#body = 2.500000e+00
m.xm7.msky130_fd_pr__pfet_g5v0d10v5#dbody = 2.500000e+00
m.xm7.msky130_fd_pr__pfet_g5v0d10v5#sbody = 2.500000e+00
m.xm8.msky130_fd_pr__pfet_g5v0d10v5#body = 2.500000e+00
m.xm8.msky130_fd_pr__pfet_g5v0d10v5#dbody = 2.500000e+00
m.xm8.msky130_fd_pr__pfet_g5v0d10v5#sbody = 2.500000e+00
m.xm9.msky130_fd_pr__nfet_g5v0d10v5#body = 2.702396e-11
m.xm9.msky130_fd_pr__nfet_g5v0d10v5#dbody = 5.537702e-11
m.xm9.msky130_fd_pr__nfet_g5v0d10v5#sbody = 2.569486e-11
m.xm10.msky130_fd_pr__nfet_g5v0d10v5#body = 2.669635e-11
m.xm10.msky130_fd_pr__nfet_g5v0d10v5#dbody = 5.455800e-11
m.xm10.msky130_fd_pr__nfet_g5v0d10v5#sbody = 2.553105e-11
m.xm11.msky130_fd_pr__pfet_g5v0d10v5#body = 2.500000e+00
m.xm11.msky130_fd_pr__pfet_g5v0d10v5#dbody = 2.500000e+00
m.xm11.msky130_fd_pr__pfet_g5v0d10v5#sbody = 2.500000e+00
m.xm12.msky130_fd_pr__pfet_g5v0d10v5#body = 2.500000e+00
m.xm12.msky130_fd_pr__pfet_g5v0d10v5#dbody = 2.500000e+00
m.xm12.msky130_fd_pr__pfet_g5v0d10v5#sbody = 2.500000e+00
m.xm13.msky130_fd_pr__nfet_g5v0d10v5#body = 4.448268e-12
m.xm13.msky130_fd_pr__nfet_g5v0d10v5#dbody = 1.112060e-11
m.xm13.msky130_fd_pr__nfet_g5v0d10v5#sbody = 2.224201e-12
m.xm14.msky130_fd_pr__pfet_g5v0d10v5#body = 2.500000e+00
m.xm14.msky130_fd_pr__pfet_g5v0d10v5#dbody = 2.500000e+00
m.xm14.msky130_fd_pr__pfet_g5v0d10v5#sbody = 2.500000e+00
m.xm15.msky130_fd_pr__nfet_g5v0d10v5#body = 5.893297e-14
m.xm15.msky130_fd_pr__nfet_g5v0d10v5#dbody = 1.473305e-13
m.xm15.msky130_fd_pr__nfet_g5v0d10v5#sbody = 2.946845e-14
m.xm16.msky130_fd_pr__nfet_g5v0d10v5#body = 5.525752e-11
m.xm16.msky130_fd_pr__nfet_g5v0d10v5#dbody = 1.007351e-10
m.xm16.msky130_fd_pr__nfet_g5v0d10v5#sbody = 6.503747e-11
m.xm17.msky130_fd_pr__pfet_g5v0d10v5#body = 2.500000e+00
m.xm17.msky130_fd_pr__pfet_g5v0d10v5#dbody = 2.500000e+00
m.xm17.msky130_fd_pr__pfet_g5v0d10v5#sbody = 2.500000e+00
m.xm18.msky130_fd_pr__nfet_g5v0d10v5#body = 1.980106e-11
m.xm18.msky130_fd_pr__nfet_g5v0d10v5#dbody = 4.950095e-11
m.xm18.msky130_fd_pr__nfet_g5v0d10v5#sbody = 9.900613e-12
m.xm19.msky130_fd_pr__nfet_g5v0d10v5#body = 2.897815e-11
m.xm19.msky130_fd_pr__nfet_g5v0d10v5#dbody = 5.713029e-11
m.xm19.msky130_fd_pr__nfet_g5v0d10v5#sbody = 2.980416e-11
m.xm20.msky130_fd_pr__nfet_g5v0d10v5#body = 1.441900e-11
m.xm20.msky130_fd_pr__nfet_g5v0d10v5#dbody = 3.604742e-11
m.xm20.msky130_fd_pr__nfet_g5v0d10v5#sbody = 7.209582e-12
m.xm22.msky130_fd_pr__nfet_g5v0d10v5#body = 1.094219e-11
m.xm22.msky130_fd_pr__nfet_g5v0d10v5#dbody = 2.735538e-11
m.xm22.msky130_fd_pr__nfet_g5v0d10v5#sbody = 5.471207e-12
m.xm24.msky130_fd_pr__pfet_g5v0d10v5#body = 2.500000e+00
m.xm24.msky130_fd_pr__pfet_g5v0d10v5#dbody = 2.500000e+00
m.xm24.msky130_fd_pr__pfet_g5v0d10v5#sbody = 2.500000e+00
m.xm26.msky130_fd_pr__pfet_g5v0d10v5#body = 2.500000e+00
m.xm26.msky130_fd_pr__pfet_g5v0d10v5#dbody = 2.500000e+00
m.xm26.msky130_fd_pr__pfet_g5v0d10v5#sbody = 2.500000e+00
mir = 1.267550e+00
net1 = 6.383356e-01
net2 = 1.137565e-04
net3 = 7.116799e-01
net4 = 1.897592e-01
net5 = 1.281396e+00
net6 = 9.449403e-01
net7 = 7.115696e-01
net8 = 1.355962e+00
net9 = 1.382170e+00
net10 = 1.956962e-01
net11 = 1.423408e+00
net12 = 1.423408e+00
net13 = 0.000000e+00
out = 1.423408e+00
pos = 1.105688e+00
q.xq2.qsky130_fd_pr__pnp_05v5_w0p68l0p68#collcx = 2.931546e-03
q.xq3.qsky130_fd_pr__pnp_05v5_w0p68l0p68#collcx = 3.732600e-04
q.xq4.qsky130_fd_pr__pnp_05v5_w0p68l0p68#collcx = 3.732600e-04
q.xq8.qsky130_fd_pr__pnp_05v5_w0p68l0p68#collcx = 3.732600e-04
q.xq10.qsky130_fd_pr__pnp_05v5_w0p68l0p68#collcx = 3.732600e-04
q.xq12.qsky130_fd_pr__pnp_05v5_w0p68l0p68#collcx = 3.732600e-04
q.xq14.qsky130_fd_pr__pnp_05v5_w0p68l0p68#collcx = 3.732600e-04
q.xq16.qsky130_fd_pr__pnp_05v5_w0p68l0p68#collcx = 3.732600e-04
q.xq18.qsky130_fd_pr__pnp_05v5_w0p68l0p68#collcx = 3.732600e-04
vb = 9.929080e-01
vdd = 2.500000e+00
vs#branch = -1.02425e-02
vt#branch = 0.000000e+00
xc1.a = 0.000000e+00
xc1.b1 = 0.000000e+00
xc3.a = 1.423408e+00
xc3.b1 = 1.423408e+00
xr1.xsky130_fd_pr__res_xhigh_po_0p69.ra = 7.148272e-01
xr2.xsky130_fd_pr__res_xhigh_po_0p69.ra = 7.149375e-01
xr3.xsky130_fd_pr__res_xhigh_po_0p69.ra = 2.006834e-03
xr4.xsky130_fd_pr__res_xhigh_po_0p69.ra = 6.396253e-01
xr5.xsky130_fd_pr__res_xhigh_po_0p69.ra = 2.006504e-03
xr6.xsky130_fd_pr__res_xhigh_po_0p69.ra = 3.447840e-03
xr7.xsky130_fd_pr__res_xhigh_po_0p69.ra = 1.423408e+00
xr8.xsky130_fd_pr__res_xhigh_po_0p69.ra = 1.110923e+00
xr9.xsky130_fd_pr__res_xhigh_po_0p69.ra = 5.405410e-03
Doing analysis at TEMP = 85.000000 and TNOM = 27.000000


No. of Data Rows : 91
Error: no such vector PM
Note: Starting true gmin stepping
Trying gmin =   1.0000E-03 Note: One successful gmin step
Trying gmin =   1.0000E-04 Note: One successful gmin step
Trying gmin =   1.0000E-05 Note: One successful gmin step
Trying gmin =   1.0000E-06 Note: One successful gmin step
Trying gmin =   1.0000E-07 Warning: Further gmin increment
Trying gmin =   5.6234E-07 Note: One successful gmin step
Trying gmin =   2.3714E-07 Note: One successful gmin step
Trying gmin =   6.4938E-08 Warning: Further gmin increment
Trying gmin =   1.7154E-07 Note: One successful gmin step
Trying gmin =   1.0554E-07 Warning: Further gmin increment
Trying gmin =   1.5193E-07 Warning: Further gmin increment
Trying gmin =   1.6641E-07 Note: One successful gmin step
Trying gmin =   1.5901E-07 Warning: Further gmin increment
Trying gmin =   1.6453E-07 Warning: Further gmin increment
Trying gmin =   1.6594E-07 Note: One successful gmin step
Trying gmin =   1.6523E-07 Warning: Further gmin increment
Trying gmin =   1.6576E-07 Note: One successful gmin step
Trying gmin =   1.6550E-07 Note: One successful gmin step
Trying gmin =   1.6510E-07 Warning: Further gmin increment
Trying gmin =   1.6540E-07 Warning: Further gmin increment
Trying gmin =   1.6547E-07 Note: One successful gmin step
Trying gmin =   1.6544E-07 Note: One successful gmin step
Trying gmin =   1.6538E-07 Warning: Further gmin increment
Trying gmin =   1.6542E-07 Warning: Further gmin increment
Trying gmin =   1.6543E-07 Note: One successful gmin step
Trying gmin =   1.6543E-07 Note: One successful gmin step
Trying gmin =   1.6542E-07 Warning: Last gmin step failed
Warning: True gmin stepping failed
Note: Starting dynamic gmin stepping
Trying gmin =   1.0000E-03 Note: One successful gmin step
Trying gmin =   1.0000E-04 Note: One successful gmin step
Trying gmin =   1.0000E-05 Note: One successful gmin step
Trying gmin =   1.0000E-06 Note: One successful gmin step
Trying gmin =   1.0000E-07 Warning: Further gmin increment
Trying gmin =   5.6234E-07 Warning: Further gmin increment
Trying gmin =   8.6596E-07 Note: One successful gmin step
Trying gmin =   6.9783E-07 Warning: Further gmin increment
Trying gmin =   8.2047E-07 Note: One successful gmin step
Trying gmin =   7.5667E-07 Warning: Further gmin increment
Trying gmin =   8.0403E-07 Note: One successful gmin step
Trying gmin =   7.7999E-07 Warning: Further gmin increment
Trying gmin =   7.9795E-07 Note: One successful gmin step
Trying gmin =   7.8892E-07 Warning: Further gmin increment
Trying gmin =   7.9569E-07 Note: One successful gmin step
Trying gmin =   7.9230E-07 Note: One successful gmin step
Trying gmin =   7.8724E-07 Warning: Further gmin increment
Trying gmin =   7.9103E-07 Warning: Further gmin increment
Trying gmin =   7.9198E-07 Note: One successful gmin step
Trying gmin =   7.9150E-07 Warning: Further gmin increment
Trying gmin =   7.9186E-07 Warning: Further gmin increment
Trying gmin =   7.9195E-07 Note: One successful gmin step
Trying gmin =   7.9191E-07 Note: One successful gmin step
Trying gmin =   7.9184E-07 Warning: Further gmin increment
Trying gmin =   7.9189E-07 Note: One successful gmin step
Trying gmin =   7.9186E-07 Note: One successful gmin step
Trying gmin =   7.9183E-07 Warning: Last gmin step failed
Warning: Dynamic gmin stepping failed
Note: Starting source stepping
Supplies reduced to   0.0000% Note: One successful source step
Supplies reduced to   0.1000% Note: One successful source step
Supplies reduced to   0.2000% Note: One successful source step
Supplies reduced to   0.3500% Note: One successful source step
Supplies reduced to   0.5750% Note: One successful source step
Supplies reduced to   0.9125% Note: One successful source step
Supplies reduced to   1.4188% Note: One successful source step
Supplies reduced to   2.1781% Note: One successful source step
Supplies reduced to   3.3172% Note: One successful source step
Supplies reduced to   5.0258% Note: One successful source step
Supplies reduced to   7.5887% Note: One successful source step
Supplies reduced to  11.4330% Note: One successful source step
Supplies reduced to  17.1995% Note: One successful source step
Supplies reduced to  25.8493% Supplies reduced to  17.1995% Note: One successful source step
Supplies reduced to  18.1995% Note: One successful source step
Supplies reduced to  19.6995% Note: One successful source step
Supplies reduced to  21.9495% Note: One successful source step
Supplies reduced to  25.3245% Note: One successful source step
Supplies reduced to  30.3870% Supplies reduced to  25.3245% Note: One successful source step
Supplies reduced to  25.5776% Note: One successful source step
Supplies reduced to  25.9573% Note: One successful source step
Supplies reduced to  26.5269% Note: One successful source step
Supplies reduced to  27.3812% Note: One successful source step
Supplies reduced to  28.6626% Note: One successful source step
Supplies reduced to  30.5848% Note: One successful source step
Supplies reduced to  33.4680% Note: One successful source step
Supplies reduced to  37.7929% Note: One successful source step
Supplies reduced to  44.2802% Note: One successful source step
Supplies reduced to  54.0112% Note: One successful source step
Supplies reduced to  63.7422% Supplies reduced to  54.0112% Note: One successful source step
Supplies reduced to  55.0112% Note: One successful source step
Supplies reduced to  56.5112% Note: One successful source step
Supplies reduced to  58.7612% Note: One successful source step
Supplies reduced to  62.1362% Supplies reduced to  58.7612% Note: One successful source step
Supplies reduced to  59.2674% Note: One successful source step
Supplies reduced to  60.0268% Note: One successful source step
Supplies reduced to  61.1659% Supplies reduced to  60.0268% Note: One successful source step
Supplies reduced to  60.1977% Note: One successful source step
Supplies reduced to  60.4540% Note: One successful source step
Supplies reduced to  60.8384% Supplies reduced to  60.4540% Note: One successful source step
Supplies reduced to  60.5116% Note: One successful source step
Supplies reduced to  60.5981% Note: One successful source step
Supplies reduced to  60.7279% Supplies reduced to  60.5981% Note: One successful source step
Supplies reduced to  60.6176% Note: One successful source step
Supplies reduced to  60.6468% Note: One successful source step
Supplies reduced to  60.6906% Supplies reduced to  60.6468% Note: One successful source step
Supplies reduced to  60.6533% Note: One successful source step
Supplies reduced to  60.6632% Note: One successful source step
Supplies reduced to  60.6780% Supplies reduced to  60.6632% Note: One successful source step
Supplies reduced to  60.6654% Note: One successful source step
Supplies reduced to  60.6687% Note: One successful source step
Supplies reduced to  60.6737% Note: One successful source step
Supplies reduced to  60.6812% Supplies reduced to  60.6737% Note: One successful source step
Supplies reduced to  60.6749% Supplies reduced to  60.6737% Note: One successful source step
Supplies reduced to  60.6739% Note: One successful source step
Supplies reduced to  60.6742% Note: One successful source step
Supplies reduced to  60.6745% Supplies reduced to  60.6742% Note: One successful source step
Supplies reduced to  60.6742% Warning: source stepping failed
doAnalyses: Too many iterations without convergence

dc simulation(s) aborted
Error(parse.c--checkvalid): vldo_sup_2_8: zero length vector.
Error: RHS "abs((vldo_sup_2_8-vldo_sup_2)/0.8)" invalid
Error(parse.c--checkvalid): line_reg: zero length vector.
Error(parse.c--checkvalid): vin: zero length vector.
Error: RHS "vin-1.764" invalid
Error(parse.c--checkvalid): dropout: zero length vector.
Error: no such vector dropout
Note: No ".plot", ".print", or ".fourier" lines; no simulations run

Error: measure  pm  (AT) : out of interval
 meas ac pm find p when vdb(ldo_out)=0 failed!

Doing analysis at TEMP = 85.000000 and TNOM = 27.000000


No. of Data Rows : 91
psrr100             =  -5.326225e+01
psrr100k            =  -2.658420e+01
Doing analysis at TEMP = 85.000000 and TNOM = 27.000000


No. of Data Rows : 86
temp_coeff = 7.786153e+01
Doing analysis at TEMP = 85.000000 and TNOM = 27.000000


Error: measure  vldo_sup_2  (AT) : out of interval
 meas dc vldo_sup_2 find ldo_out at=2 failed!


Error: measure  vldo_sup_2_8  (AT) : out of interval
 meas dc vldo_sup_2_8 find ldo_out at=2.8 failed!


Error: measure  vin  (WHEN) : out of interval
 meas dc vin when v(ldo_out)=1.764 failed!

