 Reference value :  0.00000e+00
No compatibility mode selected!


Circuit: * ldo netlist 

Doing analysis at TEMP = 85.000000 and TNOM = 27.000000


No. of Data Rows : 1
bg_out = 1.206166e+00
inn = 1.157447e+00
inp = 1.157351e+00
l1#branch = 2.775558e-17
ldo_out = 1.815422e+00
m.xm1.msky130_fd_pr__nfet_g5v0d10v5#body = 2.457357e-11
m.xm1.msky130_fd_pr__nfet_g5v0d10v5#dbody = 4.461769e-11
m.xm1.msky130_fd_pr__nfet_g5v0d10v5#sbody = 2.910302e-11
m.xm2.msky130_fd_pr__pfet_g5v0d10v5#body = 2.100000e+00
m.xm2.msky130_fd_pr__pfet_g5v0d10v5#dbody = 2.100000e+00
m.xm2.msky130_fd_pr__pfet_g5v0d10v5#sbody = 2.100000e+00
m.xm3.msky130_fd_pr__pfet_g5v0d10v5#body = 2.100000e+00
m.xm3.msky130_fd_pr__pfet_g5v0d10v5#dbody = 2.100000e+00
m.xm3.msky130_fd_pr__pfet_g5v0d10v5#sbody = 2.100000e+00
m.xm4.msky130_fd_pr__pfet_g5v0d10v5#body = 2.100000e+00
m.xm4.msky130_fd_pr__pfet_g5v0d10v5#dbody = 2.100000e+00
m.xm4.msky130_fd_pr__pfet_g5v0d10v5#sbody = 2.100000e+00
m.xm5.msky130_fd_pr__pfet_g5v0d10v5#body = 2.100000e+00
m.xm5.msky130_fd_pr__pfet_g5v0d10v5#dbody = 2.100000e+00
m.xm5.msky130_fd_pr__pfet_g5v0d10v5#sbody = 2.100000e+00
m.xm6.msky130_fd_pr__nfet_g5v0d10v5#body = 2.037580e-11
m.xm6.msky130_fd_pr__nfet_g5v0d10v5#dbody = 5.093938e-11
m.xm6.msky130_fd_pr__nfet_g5v0d10v5#sbody = 1.018802e-11
m.xm7.msky130_fd_pr__pfet_g5v0d10v5#body = 2.100000e+00
m.xm7.msky130_fd_pr__pfet_g5v0d10v5#dbody = 2.100000e+00
m.xm7.msky130_fd_pr__pfet_g5v0d10v5#sbody = 2.100000e+00
m.xm8.msky130_fd_pr__pfet_g5v0d10v5#body = 2.100000e+00
m.xm8.msky130_fd_pr__pfet_g5v0d10v5#dbody = 2.100000e+00
m.xm8.msky130_fd_pr__pfet_g5v0d10v5#sbody = 2.100000e+00
m.xm9.msky130_fd_pr__nfet_g5v0d10v5#body = 2.283582e-11
m.xm9.msky130_fd_pr__nfet_g5v0d10v5#dbody = 4.316233e-11
m.xm9.msky130_fd_pr__nfet_g5v0d10v5#sbody = 2.534514e-11
m.xm10.msky130_fd_pr__nfet_g5v0d10v5#body = 2.257216e-11
m.xm10.msky130_fd_pr__nfet_g5v0d10v5#dbody = 4.250318e-11
m.xm10.msky130_fd_pr__nfet_g5v0d10v5#sbody = 2.521331e-11
m.xm11.msky130_fd_pr__pfet_g5v0d10v5#body = 2.100000e+00
m.xm11.msky130_fd_pr__pfet_g5v0d10v5#dbody = 2.100000e+00
m.xm11.msky130_fd_pr__pfet_g5v0d10v5#sbody = 2.100000e+00
m.xm12.msky130_fd_pr__pfet_g5v0d10v5#body = 2.100000e+00
m.xm12.msky130_fd_pr__pfet_g5v0d10v5#dbody = 2.100000e+00
m.xm12.msky130_fd_pr__pfet_g5v0d10v5#sbody = 2.100000e+00
m.xm13.msky130_fd_pr__nfet_g5v0d10v5#body = 5.316440e-12
m.xm13.msky130_fd_pr__nfet_g5v0d10v5#dbody = 1.329103e-11
m.xm13.msky130_fd_pr__nfet_g5v0d10v5#sbody = 2.658290e-12
m.xm14.msky130_fd_pr__pfet_g5v0d10v5#body = 2.100000e+00
m.xm14.msky130_fd_pr__pfet_g5v0d10v5#dbody = 2.100000e+00
m.xm14.msky130_fd_pr__pfet_g5v0d10v5#sbody = 2.100000e+00
m.xm15.msky130_fd_pr__nfet_g5v0d10v5#body = 1.129888e-15
m.xm15.msky130_fd_pr__nfet_g5v0d10v5#dbody = 2.824667e-15
m.xm15.msky130_fd_pr__nfet_g5v0d10v5#sbody = 5.649958e-16
m.xm16.msky130_fd_pr__nfet_g5v0d10v5#body = 5.132441e-11
m.xm16.msky130_fd_pr__nfet_g5v0d10v5#dbody = 8.876853e-11
m.xm16.msky130_fd_pr__nfet_g5v0d10v5#sbody = 6.520470e-11
m.xm17.msky130_fd_pr__pfet_g5v0d10v5#body = 2.100000e+00
m.xm17.msky130_fd_pr__pfet_g5v0d10v5#dbody = 2.100000e+00
m.xm17.msky130_fd_pr__pfet_g5v0d10v5#sbody = 2.100000e+00
m.xm18.msky130_fd_pr__nfet_g5v0d10v5#body = 1.887754e-11
m.xm18.msky130_fd_pr__nfet_g5v0d10v5#dbody = 4.719351e-11
m.xm18.msky130_fd_pr__nfet_g5v0d10v5#sbody = 9.438850e-12
m.xm19.msky130_fd_pr__nfet_g5v0d10v5#body = 2.468122e-11
m.xm19.msky130_fd_pr__nfet_g5v0d10v5#dbody = 4.488682e-11
m.xm19.msky130_fd_pr__nfet_g5v0d10v5#sbody = 2.915684e-11
m.xm20.msky130_fd_pr__nfet_g5v0d10v5#body = 1.438126e-11
m.xm20.msky130_fd_pr__nfet_g5v0d10v5#dbody = 3.595308e-11
m.xm20.msky130_fd_pr__nfet_g5v0d10v5#sbody = 7.190711e-12
m.xm22.msky130_fd_pr__nfet_g5v0d10v5#body = 1.170185e-11
m.xm22.msky130_fd_pr__nfet_g5v0d10v5#dbody = 2.925452e-11
m.xm22.msky130_fd_pr__nfet_g5v0d10v5#sbody = 5.851039e-12
m.xm24.msky130_fd_pr__pfet_g5v0d10v5#body = 2.100000e+00
m.xm24.msky130_fd_pr__pfet_g5v0d10v5#dbody = 2.100000e+00
m.xm24.msky130_fd_pr__pfet_g5v0d10v5#sbody = 2.100000e+00
m.xm26.msky130_fd_pr__pfet_g5v0d10v5#body = 2.100000e+00
m.xm26.msky130_fd_pr__pfet_g5v0d10v5#dbody = 2.100000e+00
m.xm26.msky130_fd_pr__pfet_g5v0d10v5#sbody = 2.100000e+00
mir = 8.689833e-01
net1 = 6.383427e-01
net2 = 2.177420e-06
net3 = 7.116897e-01
net4 = 2.486360e-01
net5 = 8.775953e-01
net6 = 9.421626e-01
net7 = 7.115923e-01
net8 = 9.562530e-01
net9 = 9.773457e-01
net10 = 2.647595e-01
net11 = 1.349581e+00
net12 = 1.349581e+00
net13 = 0.000000e+00
out = 1.349581e+00
pos = 1.206448e+00
q.xq2.qsky130_fd_pr__pnp_05v5_w0p68l0p68#collcx = 2.932264e-03
q.xq3.qsky130_fd_pr__pnp_05v5_w0p68l0p68#collcx = 3.733396e-04
q.xq4.qsky130_fd_pr__pnp_05v5_w0p68l0p68#collcx = 3.733396e-04
q.xq8.qsky130_fd_pr__pnp_05v5_w0p68l0p68#collcx = 3.733396e-04
q.xq10.qsky130_fd_pr__pnp_05v5_w0p68l0p68#collcx = 3.733396e-04
q.xq12.qsky130_fd_pr__pnp_05v5_w0p68l0p68#collcx = 3.733396e-04
q.xq14.qsky130_fd_pr__pnp_05v5_w0p68l0p68#collcx = 3.733396e-04
q.xq16.qsky130_fd_pr__pnp_05v5_w0p68l0p68#collcx = 3.733396e-04
q.xq18.qsky130_fd_pr__pnp_05v5_w0p68l0p68#collcx = 3.733396e-04
vb = 9.898890e-01
vdd = 2.100000e+00
vs#branch = -1.94134e-04
vt#branch = 0.000000e+00
xc1.a = 0.000000e+00
xc1.b1 = 0.000000e+00
xc3.a = 1.349581e+00
xc3.b1 = 1.349581e+00
xr1.xsky130_fd_pr__res_xhigh_po_0p69.ra = 7.147752e-01
xr2.xsky130_fd_pr__res_xhigh_po_0p69.ra = 7.148725e-01
xr3.xsky130_fd_pr__res_xhigh_po_0p69.ra = 1.911837e-03
xr4.xsky130_fd_pr__res_xhigh_po_0p69.ra = 6.396327e-01
xr5.xsky130_fd_pr__res_xhigh_po_0p69.ra = 1.911559e-03
xr6.xsky130_fd_pr__res_xhigh_po_0p69.ra = 3.372226e-03
xr7.xsky130_fd_pr__res_xhigh_po_0p69.ra = 1.349581e+00
xr8.xsky130_fd_pr__res_xhigh_po_0p69.ra = 1.212051e+00
xr9.xsky130_fd_pr__res_xhigh_po_0p69.ra = 5.877935e-03
Doing analysis at TEMP = 85.000000 and TNOM = 27.000000


No. of Data Rows : 91
Note: Starting true gmin stepping
Trying gmin =   1.0000E-03 Note: One successful gmin step
Trying gmin =   1.0000E-04 Note: One successful gmin step
Trying gmin =   1.0000E-05 Note: One successful gmin step
Trying gmin =   1.0000E-06 Note: One successful gmin step
Trying gmin =   1.0000E-07 Note: One successful gmin step
Trying gmin =   1.0000E-08 Warning: Further gmin increment
Trying gmin =   5.6234E-08 Warning: Further gmin increment
Trying gmin =   8.6596E-08 Warning: Further gmin increment
Trying gmin =   9.6466E-08 Note: One successful gmin step
Trying gmin =   9.1398E-08 Note: One successful gmin step
Trying gmin =   8.8965E-08 Note: One successful gmin step
Trying gmin =   8.5436E-08 Note: One successful gmin step
Trying gmin =   8.0403E-08 Note: One successful gmin step
Trying gmin =   7.3404E-08 Note: One successful gmin step
Trying gmin =   7.0137E-08 Note: One successful gmin step
Trying gmin =   6.5506E-08 Note: One successful gmin step
Trying gmin =   5.9128E-08 Note: One successful gmin step
Trying gmin =   5.0705E-08 Note: One successful gmin step
Trying gmin =   4.0266E-08 Note: One successful gmin step
Trying gmin =   2.8495E-08 Note: One successful gmin step
Trying gmin =   1.6963E-08 Note: One successful gmin step
Trying gmin =   7.7917E-09 Note: One successful gmin step
Trying gmin =   2.4255E-09 Note: One successful gmin step
Trying gmin =   4.2129E-10 Note: One successful gmin step
Trying gmin =   4.2129E-11 Note: One successful gmin step
Trying gmin =   4.2129E-12 Note: One successful gmin step
Trying gmin =   1.0000E-12 Note: One successful gmin step
Note: True gmin stepping completed
 Reference value :  2.80000e+00Note: Starting true gmin stepping
Trying gmin =   1.0000E-03 Note: One successful gmin step
Trying gmin =   1.0000E-04 Note: One successful gmin step
Trying gmin =   1.0000E-05 Note: One successful gmin step
Trying gmin =   1.0000E-06 Note: One successful gmin step
Trying gmin =   1.0000E-07 Note: One successful gmin step
Trying gmin =   1.0000E-08 Warning: Further gmin increment
Trying gmin =   5.6234E-08 Note: One successful gmin step
Trying gmin =   2.3714E-08 Note: One successful gmin step
Trying gmin =   6.4938E-09 Warning: Further gmin increment
Trying gmin =   1.7154E-08 Note: One successful gmin step
Trying gmin =   1.0554E-08 Note: One successful gmin step
Trying gmin =   5.0937E-09 Warning: Further gmin increment
Trying gmin =   8.7970E-09 Note: One successful gmin step
Trying gmin =   6.6940E-09 Note: One successful gmin step
Trying gmin =   4.4433E-09 Note: One successful gmin step
Trying gmin =   2.4029E-09 Note: One successful gmin step
Trying gmin =   9.5562E-10 Note: One successful gmin step
Trying gmin =   2.3967E-10 Note: One successful gmin step
Trying gmin =   3.0102E-11 Note: One successful gmin step
Trying gmin =   3.0102E-12 Note: One successful gmin step
Trying gmin =   1.0000E-12 Note: One successful gmin step
Note: True gmin stepping completed
 Reference value :  1.34000e+00Note: Starting true gmin stepping
Trying gmin =   1.0000E-03 Note: One successful gmin step
Trying gmin =   1.0000E-04 Note: One successful gmin step
Trying gmin =   1.0000E-05 Note: One successful gmin step
Trying gmin =   1.0000E-06 Note: One successful gmin step
Trying gmin =   1.0000E-07 Note: One successful gmin step
Trying gmin =   1.0000E-08 Warning: Further gmin increment
Trying gmin =   5.6234E-08 Note: One successful gmin step
Trying gmin =   2.3714E-08 Note: One successful gmin step
Trying gmin =   6.4938E-09 Note: One successful gmin step
Trying gmin =   9.3057E-10 Warning: Further gmin increment
Trying gmin =   3.9954E-09 Note: One successful gmin step
Trying gmin =   1.9282E-09 Note: One successful gmin step
Trying gmin =   6.4647E-10 Note: One successful gmin step
Trying gmin =   1.2550E-10 Note: One successful gmin step
Trying gmin =   1.2550E-11 Note: One successful gmin step
Trying gmin =   1.2550E-12 Note: One successful gmin step
Trying gmin =   1.0000E-12 Note: One successful gmin step
Note: True gmin stepping completed
pm                  =  5.930276e+01
Doing analysis at TEMP = 85.000000 and TNOM = 27.000000


No. of Data Rows : 91
psrr100             =  -4.573788e+01
psrr100k            =  -2.445416e+01
Doing analysis at TEMP = 85.000000 and TNOM = 27.000000


No. of Data Rows : 86
temp_coeff = 1.674255e+02
Doing analysis at TEMP = 85.000000 and TNOM = 27.000000


No. of Data Rows : 141
vldo_sup_2          =  1.814815e+00
vldo_sup_2_8        =  1.817306e+00
line_reg = 3.113750e-03
Note: No ".plot", ".print", or ".fourier" lines; no simulations run
vin                 =  1.764176e+00
dropout = 1.760000e-04
