 Reference value :  0.00000e+00
No compatibility mode selected!


Circuit: * ldo netlist 

Doing analysis at TEMP = 85.000000 and TNOM = 27.000000


No. of Data Rows : 1
bg_out = 1.101249e+00
inn = 1.064362e+00
inp = 1.064199e+00
l1#branch = 0.000000e+00
ldo_out = 1.811065e+00
m.xm1.msky130_fd_pr__nfet_g5v0d10v5#body = 2.564550e-11
m.xm1.msky130_fd_pr__nfet_g5v0d10v5#dbody = 4.927222e-11
m.xm1.msky130_fd_pr__nfet_g5v0d10v5#sbody = 2.766429e-11
m.xm2.msky130_fd_pr__pfet_g5v0d10v5#body = 2.100000e+00
m.xm2.msky130_fd_pr__pfet_g5v0d10v5#dbody = 2.100000e+00
m.xm2.msky130_fd_pr__pfet_g5v0d10v5#sbody = 2.100000e+00
m.xm3.msky130_fd_pr__pfet_g5v0d10v5#body = 2.100000e+00
m.xm3.msky130_fd_pr__pfet_g5v0d10v5#dbody = 2.100000e+00
m.xm3.msky130_fd_pr__pfet_g5v0d10v5#sbody = 2.100000e+00
m.xm4.msky130_fd_pr__pfet_g5v0d10v5#body = 2.100000e+00
m.xm4.msky130_fd_pr__pfet_g5v0d10v5#dbody = 2.100000e+00
m.xm4.msky130_fd_pr__pfet_g5v0d10v5#sbody = 2.100000e+00
m.xm5.msky130_fd_pr__pfet_g5v0d10v5#body = 2.100000e+00
m.xm5.msky130_fd_pr__pfet_g5v0d10v5#dbody = 2.100000e+00
m.xm5.msky130_fd_pr__pfet_g5v0d10v5#sbody = 2.100000e+00
m.xm6.msky130_fd_pr__nfet_g5v0d10v5#body = 2.059926e-11
m.xm6.msky130_fd_pr__nfet_g5v0d10v5#dbody = 5.149803e-11
m.xm6.msky130_fd_pr__nfet_g5v0d10v5#sbody = 1.029975e-11
m.xm7.msky130_fd_pr__pfet_g5v0d10v5#body = 2.100000e+00
m.xm7.msky130_fd_pr__pfet_g5v0d10v5#dbody = 2.100000e+00
m.xm7.msky130_fd_pr__pfet_g5v0d10v5#sbody = 2.100000e+00
m.xm8.msky130_fd_pr__pfet_g5v0d10v5#body = 2.100000e+00
m.xm8.msky130_fd_pr__pfet_g5v0d10v5#dbody = 2.100000e+00
m.xm8.msky130_fd_pr__pfet_g5v0d10v5#sbody = 2.100000e+00
m.xm9.msky130_fd_pr__nfet_g5v0d10v5#body = 2.386916e-11
m.xm9.msky130_fd_pr__nfet_g5v0d10v5#dbody = 4.789942e-11
m.xm9.msky130_fd_pr__nfet_g5v0d10v5#sbody = 2.370807e-11
m.xm10.msky130_fd_pr__nfet_g5v0d10v5#body = 2.347831e-11
m.xm10.msky130_fd_pr__nfet_g5v0d10v5#dbody = 4.692228e-11
m.xm10.msky130_fd_pr__nfet_g5v0d10v5#sbody = 2.351264e-11
m.xm11.msky130_fd_pr__pfet_g5v0d10v5#body = 2.100000e+00
m.xm11.msky130_fd_pr__pfet_g5v0d10v5#dbody = 2.100000e+00
m.xm11.msky130_fd_pr__pfet_g5v0d10v5#sbody = 2.100000e+00
m.xm12.msky130_fd_pr__pfet_g5v0d10v5#body = 2.100000e+00
m.xm12.msky130_fd_pr__pfet_g5v0d10v5#dbody = 2.100000e+00
m.xm12.msky130_fd_pr__pfet_g5v0d10v5#sbody = 2.100000e+00
m.xm13.msky130_fd_pr__nfet_g5v0d10v5#body = 4.246563e-12
m.xm13.msky130_fd_pr__nfet_g5v0d10v5#dbody = 1.061634e-11
m.xm13.msky130_fd_pr__nfet_g5v0d10v5#sbody = 2.123346e-12
m.xm14.msky130_fd_pr__pfet_g5v0d10v5#body = 2.100000e+00
m.xm14.msky130_fd_pr__pfet_g5v0d10v5#dbody = 2.100000e+00
m.xm14.msky130_fd_pr__pfet_g5v0d10v5#sbody = 2.100000e+00
m.xm15.msky130_fd_pr__nfet_g5v0d10v5#body = 2.801518e-14
m.xm15.msky130_fd_pr__nfet_g5v0d10v5#dbody = 7.003717e-14
m.xm15.msky130_fd_pr__nfet_g5v0d10v5#sbody = 1.400838e-14
m.xm16.msky130_fd_pr__nfet_g5v0d10v5#body = 5.018308e-11
m.xm16.msky130_fd_pr__nfet_g5v0d10v5#dbody = 8.822010e-11
m.xm16.msky130_fd_pr__nfet_g5v0d10v5#sbody = 6.232915e-11
m.xm17.msky130_fd_pr__pfet_g5v0d10v5#body = 2.100000e+00
m.xm17.msky130_fd_pr__pfet_g5v0d10v5#dbody = 2.100000e+00
m.xm17.msky130_fd_pr__pfet_g5v0d10v5#sbody = 2.100000e+00
m.xm18.msky130_fd_pr__nfet_g5v0d10v5#body = 2.134166e-11
m.xm18.msky130_fd_pr__nfet_g5v0d10v5#dbody = 5.333206e-11
m.xm18.msky130_fd_pr__nfet_g5v0d10v5#sbody = 1.067091e-11
m.xm19.msky130_fd_pr__nfet_g5v0d10v5#body = 2.586549e-11
m.xm19.msky130_fd_pr__nfet_g5v0d10v5#dbody = 4.982218e-11
m.xm19.msky130_fd_pr__nfet_g5v0d10v5#sbody = 2.777428e-11
m.xm20.msky130_fd_pr__nfet_g5v0d10v5#body = 1.466502e-11
m.xm20.msky130_fd_pr__nfet_g5v0d10v5#dbody = 3.666248e-11
m.xm20.msky130_fd_pr__nfet_g5v0d10v5#sbody = 7.332593e-12
m.xm22.msky130_fd_pr__nfet_g5v0d10v5#body = 1.069714e-11
m.xm22.msky130_fd_pr__nfet_g5v0d10v5#dbody = 2.674276e-11
m.xm22.msky130_fd_pr__nfet_g5v0d10v5#sbody = 5.348679e-12
m.xm24.msky130_fd_pr__pfet_g5v0d10v5#body = 2.100000e+00
m.xm24.msky130_fd_pr__pfet_g5v0d10v5#dbody = 2.100000e+00
m.xm24.msky130_fd_pr__pfet_g5v0d10v5#sbody = 2.100000e+00
m.xm26.msky130_fd_pr__pfet_g5v0d10v5#body = 2.100000e+00
m.xm26.msky130_fd_pr__pfet_g5v0d10v5#dbody = 2.100000e+00
m.xm26.msky130_fd_pr__pfet_g5v0d10v5#sbody = 2.100000e+00
mir = 1.032836e+00
net1 = 6.313379e-01
net2 = 5.399453e-05
net3 = 7.051465e-01
net4 = 1.709987e-01
net5 = 1.050435e+00
net6 = 9.591499e-01
net7 = 7.049810e-01
net8 = 1.114005e+00
net9 = 1.145273e+00
net10 = 1.789660e-01
net11 = 1.544951e+00
net12 = 1.544951e+00
net13 = 0.000000e+00
out = 1.544951e+00
pos = 1.101624e+00
q.xq2.qsky130_fd_pr__pnp_05v5_w0p68l0p68#collcx = 3.094320e-03
q.xq3.qsky130_fd_pr__pnp_05v5_w0p68l0p68#collcx = 3.908065e-04
q.xq4.qsky130_fd_pr__pnp_05v5_w0p68l0p68#collcx = 3.908065e-04
q.xq8.qsky130_fd_pr__pnp_05v5_w0p68l0p68#collcx = 3.908065e-04
q.xq10.qsky130_fd_pr__pnp_05v5_w0p68l0p68#collcx = 3.908065e-04
q.xq12.qsky130_fd_pr__pnp_05v5_w0p68l0p68#collcx = 3.908065e-04
q.xq14.qsky130_fd_pr__pnp_05v5_w0p68l0p68#collcx = 3.908065e-04
q.xq16.qsky130_fd_pr__pnp_05v5_w0p68l0p68#collcx = 3.908065e-04
q.xq18.qsky130_fd_pr__pnp_05v5_w0p68l0p68#collcx = 3.908065e-04
vb = 1.011700e+00
vdd = 2.100000e+00
vs#branch = -1.92761e-04
vt#branch = 0.000000e+00
xc1.a = 0.000000e+00
xc1.b1 = 0.000000e+00
xc3.a = 1.544951e+00
xc3.b1 = 1.544951e+00
xr1.xsky130_fd_pr__res_xhigh_po_0p69.ra = 7.082275e-01
xr2.xsky130_fd_pr__res_xhigh_po_0p69.ra = 7.083930e-01
xr3.xsky130_fd_pr__res_xhigh_po_0p69.ra = 1.987332e-03
xr4.xsky130_fd_pr__res_xhigh_po_0p69.ra = 6.326348e-01
xr5.xsky130_fd_pr__res_xhigh_po_0p69.ra = 1.986839e-03
xr6.xsky130_fd_pr__res_xhigh_po_0p69.ra = 3.433715e-03
xr7.xsky130_fd_pr__res_xhigh_po_0p69.ra = 1.544951e+00
xr8.xsky130_fd_pr__res_xhigh_po_0p69.ra = 1.106839e+00
xr9.xsky130_fd_pr__res_xhigh_po_0p69.ra = 5.383841e-03
Doing analysis at TEMP = 85.000000 and TNOM = 27.000000


No. of Data Rows : 91
Note: Starting true gmin stepping
Trying gmin =   1.0000E-03 Note: One successful gmin step
Trying gmin =   1.0000E-04 Note: One successful gmin step
Trying gmin =   1.0000E-05 Note: One successful gmin step
Trying gmin =   1.0000E-06 Note: One successful gmin step
Trying gmin =   1.0000E-07 Note: One successful gmin step
Trying gmin =   1.0000E-08 Warning: Further gmin increment
Trying gmin =   5.6234E-08 Warning: Further gmin increment
Trying gmin =   8.6596E-08 Note: One successful gmin step
Trying gmin =   6.9783E-08 Warning: Further gmin increment
Trying gmin =   8.2047E-08 Note: One successful gmin step
Trying gmin =   7.5667E-08 Warning: Further gmin increment
Trying gmin =   8.0403E-08 Note: One successful gmin step
Trying gmin =   7.7999E-08 Warning: Further gmin increment
Trying gmin =   7.9795E-08 Note: One successful gmin step
Trying gmin =   7.8892E-08 Note: One successful gmin step
Trying gmin =   7.7556E-08 Note: One successful gmin step
Trying gmin =   7.5595E-08 Note: One successful gmin step
Trying gmin =   7.2746E-08 Note: One successful gmin step
Trying gmin =   6.8672E-08 Note: One successful gmin step
Trying gmin =   6.2985E-08 Note: One successful gmin step
Trying gmin =   5.5325E-08 Note: One successful gmin step
Trying gmin =   4.5546E-08 Note: One successful gmin step
Trying gmin =   3.4021E-08 Note: One successful gmin step
Trying gmin =   2.1963E-08 Note: One successful gmin step
Trying gmin =   1.1392E-08 Note: One successful gmin step
Trying gmin =   4.2557E-09 Note: One successful gmin step
Trying gmin =   9.7169E-10 Note: One successful gmin step
Trying gmin =   1.0601E-10 Note: One successful gmin step
Trying gmin =   1.0601E-11 Note: One successful gmin step
Trying gmin =   1.0601E-12 Note: One successful gmin step
Trying gmin =   1.0000E-12 Note: One successful gmin step
Note: True gmin stepping completed
 Reference value :  2.80000e+00Note: Starting true gmin stepping
Trying gmin =   1.0000E-03 Note: One successful gmin step
Trying gmin =   1.0000E-04 Note: One successful gmin step
Trying gmin =   1.0000E-05 Note: One successful gmin step
Trying gmin =   1.0000E-06 Note: One successful gmin step
Trying gmin =   1.0000E-07 Note: One successful gmin step
Trying gmin =   1.0000E-08 Note: One successful gmin step
Trying gmin =   3.1623E-09 Note: One successful gmin step
Trying gmin =   5.6234E-10 Note: One successful gmin step
Trying gmin =   5.6234E-11 Warning: Further gmin increment
Trying gmin =   3.1623E-10 Note: One successful gmin step
Trying gmin =   1.3335E-10 Warning: Further gmin increment
Trying gmin =   2.5483E-10 Note: One successful gmin step
Trying gmin =   1.8434E-10 Note: One successful gmin step
Trying gmin =   1.1342E-10 Note: One successful gmin step
Trying gmin =   5.4737E-11 Note: One successful gmin step
Trying gmin =   1.8352E-11 Note: One successful gmin step
Trying gmin =   3.5625E-12 Note: One successful gmin step
Trying gmin =   1.0000E-12 Note: One successful gmin step
Note: True gmin stepping completed
 Reference value :  1.08000e+00Error: -6.39668e+154, 2 out of range for ^
Error: -6.39668e+154, 2 out of range for ^
Note: Starting true gmin stepping
Trying gmin =   1.0000E-03 Note: One successful gmin step
Trying gmin =   1.0000E-04 Note: One successful gmin step
Trying gmin =   1.0000E-05 Note: One successful gmin step
Trying gmin =   1.0000E-06 Note: One successful gmin step
Trying gmin =   1.0000E-07 Note: One successful gmin step
Trying gmin =   1.0000E-08 Note: One successful gmin step
Trying gmin =   1.0000E-09 Note: One successful gmin step
Trying gmin =   1.0000E-10 Warning: Further gmin increment
Trying gmin =   5.6234E-10 Note: One successful gmin step
Trying gmin =   2.3714E-10 Note: One successful gmin step
Trying gmin =   6.4938E-11 Warning: Further gmin increment
Trying gmin =   1.7154E-10 Note: One successful gmin step
Trying gmin =   1.0554E-10 Note: One successful gmin step
Trying gmin =   5.0937E-11 Note: One successful gmin step
Trying gmin =   1.7077E-11 Note: One successful gmin step
Trying gmin =   3.3152E-12 Note: One successful gmin step
Trying gmin =   1.0000E-12 Note: One successful gmin step
Note: True gmin stepping completed
 Reference value :  1.04000e+00Note: Starting true gmin stepping
Trying gmin =   1.0000E-03 Note: One successful gmin step
Trying gmin =   1.0000E-04 Note: One successful gmin step
Trying gmin =   1.0000E-05 Note: One successful gmin step
Trying gmin =   1.0000E-06 Note: One successful gmin step
Trying gmin =   1.0000E-07 Note: One successful gmin step
Trying gmin =   1.0000E-08 Note: One successful gmin step
Trying gmin =   1.0000E-09 Note: One successful gmin step
Trying gmin =   1.0000E-10 Note: One successful gmin step
Trying gmin =   1.0000E-11 Note: One successful gmin step
Trying gmin =   1.0000E-12 Note: One successful gmin step
Trying gmin =   1.0000E-12 Note: One successful gmin step
Note: True gmin stepping completed
Error: -2.67855e+156, 2 out of range for ^
Note: Starting true gmin stepping
Trying gmin =   1.0000E-03 Note: One successful gmin step
Trying gmin =   1.0000E-04 Note: One successful gmin step
Trying gmin =   1.0000E-05 Note: One successful gmin step
Trying gmin =   1.0000E-06 Note: One successful gmin step
Trying gmin =   1.0000E-07 Note: One successful gmin step
Trying gmin =   1.0000E-08 Note: One successful gmin step
Trying gmin =   1.0000E-09 Note: One successful gmin step
Trying gmin =   1.0000E-10 Note: One successful gmin step
Trying gmin =   1.0000E-11 Note: One successful gmin step
Trying gmin =   1.0000E-12 Warning: Further gmin increment
Trying gmin =   5.6234E-12 Note: One successful gmin step
Trying gmin =   2.3714E-12 Note: One successful gmin step
Trying gmin =   1.0000E-12 Warning: Further gmin increment
Trying gmin =   1.9110E-12 Note: One successful gmin step
Trying gmin =   1.5399E-12 Note: One successful gmin step
Trying gmin =   1.1140E-12 Note: One successful gmin step
Trying gmin =   1.0000E-12 Warning: Further gmin increment
Trying gmin =   1.0843E-12 Note: One successful gmin step
Trying gmin =   1.0413E-12 Note: One successful gmin step
Trying gmin =   1.0000E-12 Warning: Further gmin increment
Trying gmin =   1.0308E-12 Note: One successful gmin step
Trying gmin =   1.0153E-12 Note: One successful gmin step
Trying gmin =   1.0000E-12 Warning: Further gmin increment
Trying gmin =   1.0114E-12 Note: One successful gmin step
Trying gmin =   1.0057E-12 Note: One successful gmin step
Trying gmin =   1.0000E-12 Warning: Further gmin increment
Trying gmin =   1.0043E-12 Note: One successful gmin step
Trying gmin =   1.0021E-12 Note: One successful gmin step
Trying gmin =   1.0000E-12 Warning: Further gmin increment
Trying gmin =   1.0016E-12 Note: One successful gmin step
Trying gmin =   1.0011E-12 Note: One successful gmin step
Trying gmin =   1.0005E-12 Warning: Further gmin increment
Trying gmin =   1.0009E-12 Note: One successful gmin step
Trying gmin =   1.0008E-12 Note: One successful gmin step
Trying gmin =   1.0006E-12 Warning: Further gmin increment
Trying gmin =   1.0008E-12 Note: One successful gmin step
Trying gmin =   1.0007E-12 Warning: Further gmin increment
Trying gmin =   1.0007E-12 Note: One successful gmin step
Trying gmin =   1.0007E-12 Warning: Last gmin step failed
Warning: True gmin stepping failed
Note: Starting dynamic gmin stepping
Trying gmin =   1.0000E-03 Note: One successful gmin step
Trying gmin =   1.0000E-04 Note: One successful gmin step
Trying gmin =   1.0000E-05 Note: One successful gmin step
Trying gmin =   1.0000E-06 Note: One successful gmin step
Trying gmin =   1.0000E-07 Note: One successful gmin step
Trying gmin =   1.0000E-08 Note: One successful gmin step
Trying gmin =   1.0000E-09 Note: One successful gmin step
Trying gmin =   1.0000E-10 Note: One successful gmin step
Trying gmin =   1.0000E-11 Note: One successful gmin step
Trying gmin =   1.0000E-12 Note: One successful gmin step
Trying gmin =   1.0000E-12 Note: One successful gmin step
Warning: Dynamic gmin stepping failed
Note: Starting source stepping
Supplies reduced to   0.0000% Note: One successful source step
Supplies reduced to   0.1000% Note: One successful source step
Supplies reduced to   0.2000% Note: One successful source step
Supplies reduced to   0.3500% Note: One successful source step
Supplies reduced to   0.5750% Note: One successful source step
Supplies reduced to   0.9125% Note: One successful source step
Supplies reduced to   1.4188% Note: One successful source step
Supplies reduced to   2.1781% Note: One successful source step
Supplies reduced to   3.3172% Note: One successful source step
Supplies reduced to   5.0258% Note: One successful source step
Supplies reduced to   7.5887% Note: One successful source step
Supplies reduced to  11.4330% Note: One successful source step
Supplies reduced to  17.1995% Note: One successful source step
Supplies reduced to  25.8493% Note: One successful source step
Supplies reduced to  38.8239% Note: One successful source step
Supplies reduced to  58.2859% Note: One successful source step
Supplies reduced to  87.4788% Note: One successful source step
Supplies reduced to 100.0000% Supplies reduced to  87.4788% Note: One successful source step
Supplies reduced to  88.4788% Note: One successful source step
Supplies reduced to  89.9788% Note: One successful source step
Supplies reduced to  92.2288% Note: One successful source step
Supplies reduced to  94.4788% Note: One successful source step
Supplies reduced to  97.8538% Note: One successful source step
Supplies reduced to 100.0000% Supplies reduced to  97.8538% Note: One successful source step
Supplies reduced to  98.6132% Note: One successful source step
Supplies reduced to  99.7522% Note: One successful source step
Supplies reduced to 100.0000% Supplies reduced to  99.7522% Note: One successful source step
Supplies reduced to  99.9231% Note: One successful source step
Supplies reduced to 100.0000% Supplies reduced to  99.9231% Note: One successful source step
Supplies reduced to  99.9359% Note: One successful source step
Supplies reduced to  99.9423% Note: One successful source step
Supplies reduced to  99.9487% Supplies reduced to  99.9423% Note: One successful source step
Supplies reduced to  99.9429% Note: One successful source step
Supplies reduced to  99.9439% Supplies reduced to  99.9429% Note: One successful source step
Supplies reduced to  99.9430% Note: One successful source step
Supplies reduced to  99.9431% Note: One successful source step
Supplies reduced to  99.9433% Note: One successful source step
Supplies reduced to  99.9435% Supplies reduced to  99.9433% Note: One successful source step
Supplies reduced to  99.9433% Note: One successful source step
Warning: source stepping failed
doAnalyses: Too many iterations without convergence

dc simulation(s) aborted
pm                  =  6.892113e+01
Doing analysis at TEMP = 85.000000 and TNOM = 27.000000


No. of Data Rows : 91
psrr100             =  -4.812706e+01
psrr100k            =  -2.411919e+01
Doing analysis at TEMP = 85.000000 and TNOM = 27.000000


No. of Data Rows : 86
temp_coeff = 5.009960e+01
Doing analysis at TEMP = 85.000000 and TNOM = 27.000000

vldo_sup_2          =  1.810770e+00
vldo_sup_2_8        =  1.812819e+00
line_reg = 2.561250e-03
Note: No ".plot", ".print", or ".fourier" lines; no simulations run
vin                 =  1.764114e+00
dropout = 1.140000e-04
