Note: Starting true gmin stepping
Trying gmin =   1.0000E-03 Note: One successful gmin step
Trying gmin =   1.0000E-04 Note: One successful gmin step
Trying gmin =   1.0000E-05 Note: One successful gmin step
Trying gmin =   1.0000E-06 Note: One successful gmin step
Trying gmin =   1.0000E-07 Note: One successful gmin step
Trying gmin =   1.0000E-08 Note: One successful gmin step
Trying gmin =   1.0000E-09 Note: One successful gmin step
Trying gmin =   1.0000E-10 Note: One successful gmin step
Trying gmin =   1.0000E-11 Note: One successful gmin step
Trying gmin =   1.0000E-12 Note: One successful gmin step
Trying gmin =   1.0000E-12 Note: One successful gmin step
Note: True gmin stepping completed
 Reference value :  0.00000e+00
No compatibility mode selected!


Circuit: * ldo netlist 

Doing analysis at TEMP = 0.000000 and TNOM = 27.000000


No. of Data Rows : 1
bg_out = 1.192342e+00
inn = 1.259070e+00
inp = 1.259032e+00
l1#branch = 0.000000e+00
ldo_out = 1.792549e+00
m.xm1.msky130_fd_pr__nfet_g5v0d10v5#body = 1.433290e-11
m.xm1.msky130_fd_pr__nfet_g5v0d10v5#dbody = 2.852234e-11
m.xm1.msky130_fd_pr__nfet_g5v0d10v5#sbody = 1.447637e-11
m.xm2.msky130_fd_pr__pfet_g5v0d10v5#body = 2.100000e+00
m.xm2.msky130_fd_pr__pfet_g5v0d10v5#dbody = 2.100000e+00
m.xm2.msky130_fd_pr__pfet_g5v0d10v5#sbody = 2.100000e+00
m.xm3.msky130_fd_pr__pfet_g5v0d10v5#body = 2.100000e+00
m.xm3.msky130_fd_pr__pfet_g5v0d10v5#dbody = 2.100000e+00
m.xm3.msky130_fd_pr__pfet_g5v0d10v5#sbody = 2.100000e+00
m.xm4.msky130_fd_pr__pfet_g5v0d10v5#body = 2.100000e+00
m.xm4.msky130_fd_pr__pfet_g5v0d10v5#dbody = 2.100000e+00
m.xm4.msky130_fd_pr__pfet_g5v0d10v5#sbody = 2.100000e+00
m.xm5.msky130_fd_pr__pfet_g5v0d10v5#body = 2.100000e+00
m.xm5.msky130_fd_pr__pfet_g5v0d10v5#dbody = 2.100000e+00
m.xm5.msky130_fd_pr__pfet_g5v0d10v5#sbody = 2.100000e+00
m.xm6.msky130_fd_pr__nfet_g5v0d10v5#body = 1.196410e-11
m.xm6.msky130_fd_pr__nfet_g5v0d10v5#dbody = 2.991023e-11
m.xm6.msky130_fd_pr__nfet_g5v0d10v5#sbody = 5.982052e-12
m.xm7.msky130_fd_pr__pfet_g5v0d10v5#body = 2.100000e+00
m.xm7.msky130_fd_pr__pfet_g5v0d10v5#dbody = 2.100000e+00
m.xm7.msky130_fd_pr__pfet_g5v0d10v5#sbody = 2.100000e+00
m.xm8.msky130_fd_pr__pfet_g5v0d10v5#body = 2.100000e+00
m.xm8.msky130_fd_pr__pfet_g5v0d10v5#dbody = 2.100000e+00
m.xm8.msky130_fd_pr__pfet_g5v0d10v5#sbody = 2.100000e+00
m.xm9.msky130_fd_pr__nfet_g5v0d10v5#body = 1.461542e-11
m.xm9.msky130_fd_pr__nfet_g5v0d10v5#dbody = 3.076003e-11
m.xm9.msky130_fd_pr__nfet_g5v0d10v5#sbody = 1.308624e-11
m.xm10.msky130_fd_pr__nfet_g5v0d10v5#body = 1.455765e-11
m.xm10.msky130_fd_pr__nfet_g5v0d10v5#dbody = 3.061559e-11
m.xm10.msky130_fd_pr__nfet_g5v0d10v5#sbody = 1.305736e-11
m.xm11.msky130_fd_pr__pfet_g5v0d10v5#body = 2.100000e+00
m.xm11.msky130_fd_pr__pfet_g5v0d10v5#dbody = 2.100000e+00
m.xm11.msky130_fd_pr__pfet_g5v0d10v5#sbody = 2.100000e+00
m.xm12.msky130_fd_pr__pfet_g5v0d10v5#body = 2.100000e+00
m.xm12.msky130_fd_pr__pfet_g5v0d10v5#dbody = 2.100000e+00
m.xm12.msky130_fd_pr__pfet_g5v0d10v5#sbody = 2.100000e+00
m.xm13.msky130_fd_pr__nfet_g5v0d10v5#body = 2.889246e-12
m.xm13.msky130_fd_pr__nfet_g5v0d10v5#dbody = 7.223106e-12
m.xm13.msky130_fd_pr__nfet_g5v0d10v5#sbody = 1.444633e-12
m.xm14.msky130_fd_pr__pfet_g5v0d10v5#body = 2.100000e+00
m.xm14.msky130_fd_pr__pfet_g5v0d10v5#dbody = 2.100000e+00
m.xm14.msky130_fd_pr__pfet_g5v0d10v5#sbody = 2.100000e+00
m.xm15.msky130_fd_pr__nfet_g5v0d10v5#body = 5.322580e-18
m.xm15.msky130_fd_pr__nfet_g5v0d10v5#dbody = 1.330608e-17
m.xm15.msky130_fd_pr__nfet_g5v0d10v5#sbody = 2.661660e-18
m.xm16.msky130_fd_pr__nfet_g5v0d10v5#body = 4.198849e-11
m.xm16.msky130_fd_pr__nfet_g5v0d10v5#dbody = 7.349436e-11
m.xm16.msky130_fd_pr__nfet_g5v0d10v5#sbody = 5.247111e-11
m.xm17.msky130_fd_pr__pfet_g5v0d10v5#body = 2.100000e+00
m.xm17.msky130_fd_pr__pfet_g5v0d10v5#dbody = 2.100000e+00
m.xm17.msky130_fd_pr__pfet_g5v0d10v5#sbody = 2.100000e+00
m.xm18.msky130_fd_pr__nfet_g5v0d10v5#body = 6.282255e-12
m.xm18.msky130_fd_pr__nfet_g5v0d10v5#dbody = 1.570563e-11
m.xm18.msky130_fd_pr__nfet_g5v0d10v5#sbody = 3.141138e-12
m.xm19.msky130_fd_pr__nfet_g5v0d10v5#body = 1.438165e-11
m.xm19.msky130_fd_pr__nfet_g5v0d10v5#dbody = 2.864420e-11
m.xm19.msky130_fd_pr__nfet_g5v0d10v5#sbody = 1.450074e-11
m.xm20.msky130_fd_pr__nfet_g5v0d10v5#body = 1.224244e-11
m.xm20.msky130_fd_pr__nfet_g5v0d10v5#dbody = 3.060610e-11
m.xm20.msky130_fd_pr__nfet_g5v0d10v5#sbody = 6.121233e-12
m.xm22.msky130_fd_pr__nfet_g5v0d10v5#body = 3.654996e-12
m.xm22.msky130_fd_pr__nfet_g5v0d10v5#dbody = 9.137485e-12
m.xm22.msky130_fd_pr__nfet_g5v0d10v5#sbody = 1.827502e-12
m.xm24.msky130_fd_pr__pfet_g5v0d10v5#body = 2.100000e+00
m.xm24.msky130_fd_pr__pfet_g5v0d10v5#dbody = 2.100000e+00
m.xm24.msky130_fd_pr__pfet_g5v0d10v5#sbody = 2.100000e+00
m.xm26.msky130_fd_pr__pfet_g5v0d10v5#body = 2.100000e+00
m.xm26.msky130Note: Starting true gmin stepping
Trying gmin =   1.0000E-03 Note: One successful gmin step
Trying gmin =   1.0000E-04 Note: One successful gmin step
Trying gmin =   1.0000E-05 Note: One successful gmin step
Trying gmin =   1.0000E-06 Note: One successful gmin step
Trying gmin =   1.0000E-07 Note: One successful gmin step
Trying gmin =   1.0000E-08 Note: One successful gmin step
Trying gmin =   1.0000E-09 Note: One successful gmin step
Trying gmin =   1.0000E-10 Note: One successful gmin step
Trying gmin =   1.0000E-11 Note: One successful gmin step
Trying gmin =   1.0000E-12 Note: One successful gmin step
Trying gmin =   1.0000E-12 Note: One successful gmin step
Note: True gmin stepping completed
_fd_pr__pfet_g5v0d10v5#dbody = 2.100000e+00
m.xm26.msky130_fd_pr__pfet_g5v0d10v5#sbody = 2.100000e+00
mir = 8.542308e-01
net1 = 7.689972e-01
net2 = 4.255537e-07
net3 = 8.225191e-01
net4 = 2.923920e-01
net5 = 8.581305e-01
net6 = 9.571199e-01
net7 = 8.224801e-01
net8 = 9.334676e-01
net9 = 9.380895e-01
net10 = 2.311379e-01
net11 = 5.025786e-01
net12 = 5.025786e-01
net13 = 0.000000e+00
out = 5.025786e-01
pos = 1.192391e+00
q.xq2.qsky130_fd_pr__pnp_05v5_w0p68l0p68#collcx = 1.780999e-03
q.xq3.qsky130_fd_pr__pnp_05v5_w0p68l0p68#collcx = 2.240757e-04
q.xq4.qsky130_fd_pr__pnp_05v5_w0p68l0p68#collcx = 2.240757e-04
q.xq8.qsky130_fd_pr__pnp_05v5_w0p68l0p68#collcx = 2.240757e-04
q.xq10.qsky130_fd_pr__pnp_05v5_w0p68l0p68#collcx = 2.240757e-04
q.xq12.qsky130_fd_pr__pnp_05v5_w0p68l0p68#collcx = 2.240757e-04
q.xq14.qsky130_fd_pr__pnp_05v5_w0p68l0p68#collcx = 2.240757e-04
q.xq16.qsky130_fd_pr__pnp_05v5_w0p68l0p68#collcx = 2.240757e-04
q.xq18.qsky130_fd_pr__pnp_05v5_w0p68l0p68#collcx = 2.240757e-04
vb = 9.793936e-01
vdd = 2.100000e+00
vs#branch = -9.97007e-02
vt#branch = 0.000000e+00
xc1.a = 0.000000e+00
xc1.b1 = 0.000000e+00
xc3.a = 5.025786e-01
xc3.b1 = 5.025786e-01
xr1.xsky130_fd_pr__res_xhigh_po_0p69.ra = 8.297095e-01
xr2.xsky130_fd_pr__res_xhigh_po_0p69.ra = 8.297485e-01
xr3.xsky130_fd_pr__res_xhigh_po_0p69.ra = 5.158538e-03
xr4.xsky130_fd_pr__res_xhigh_po_0p69.ra = 7.711897e-01
xr5.xsky130_fd_pr__res_xhigh_po_0p69.ra = 5.158277e-03
xr6.xsky130_fd_pr__res_xhigh_po_0p69.ra = 7.702277e-03
xr7.xsky130_fd_pr__res_xhigh_po_0p69.ra = 5.025786e-01
xr8.xsky130_fd_pr__res_xhigh_po_0p69.ra = 1.205208e+00
xr9.xsky130_fd_pr__res_xhigh_po_0p69.ra = 1.344107e-02
Doing analysis at TEMP = 0.000000 and TNOM = 27.000000


No. of Data Rows : 91
Note: Starting true gmin stepping
Trying gmin =   1.0000E-03 Note: One successful gmin step
Trying gmin =   1.0000E-04 Note: One successful gmin step
Trying gmin =   1.0000E-05 Note: One successful gmin step
Trying gmin =   1.0000E-06 Note: One successful gmin step
Trying gmin =   1.0000E-07 Note: One successful gmin step
Trying gmin =   1.0000E-08 Note: One successful gmin step
Trying gmin =   1.0000E-09 Note: One successful gmin step
Trying gmin =   1.0000E-10 Note: One successful gmin step
Trying gmin =   1.0000E-11 Note: One successful gmin step
Trying gmin =   1.0000E-12 Note: One successful gmin step
Trying gmin =   1.0000E-12 Note: One successful gmin step
Note: True gmin stepping completed
 Reference value :  8.50000e+01Note: Starting true gmin stepping
Trying gmin =   1.0000E-03 Note: One successful gmin step
Trying gmin =   1.0000E-04 Note: One successful gmin step
Trying gmin =   1.0000E-05 Note: One successful gmin step
Trying gmin =   1.0000E-06 Warning: Further gmin increment
Trying gmin =   5.6234E-06 Note: One successful gmin step
Trying gmin =   2.3714E-06 Note: One successful gmin step
Trying gmin =   1.0000E-06 Warning: Further gmin increment
Trying gmin =   1.9110E-06 Note: One successful gmin step
Trying gmin =   1.3824E-06 Note: One successful gmin step
Trying gmin =   8.5053E-07 Note: One successful gmin step
Trying gmin =   4.1047E-07 Note: One successful gmin step
Trying gmin =   1.3762E-07 Note: One successful gmin step
Trying gmin =   2.6715E-08 Warning: Further gmin increment
Trying gmin =   9.1347E-08 Note: One successful gmin step
Trying gmin =   4.9400E-08 Note: One successful gmin step
Trying gmin =   1.9646E-08 Warning: Further gmin increment
Trying gmin =   3.9229E-08 Warning: Further gmin increment
Trying gmin =   4.6633E-08 Note: One successful gmin step
Trying gmin =   4.2772E-08 Warning: Further gmin increment
Trying gmin =   4.5636E-08 Note: One successful gmin step
Trying gmin =   4.4181E-08 Note: One successful gmin step
Trying gmin =   4.2084E-08 Warning: Further gmin increment
Trying gmin =   4.3647E-08 Warning: Further gmin increment
Trying gmin =   4.4047E-08 Note: One successful gmin step
Trying gmin =   4.3846E-08 Warning: Further gmin increment
Trying gmin =   4.3997E-08 Warning: Further gmin increment
Trying gmin =   4.4034E-08 Note: One successful gmin step
Trying gmin =   4.4015E-08 Warning: Further gmin increment
Trying gmin =   4.4029E-08 Note: One successful gmin step
Trying gmin =   4.4022E-08 Warning: Further gmin increment
Trying gmin =   4.4028E-08 Note: One successful gmin step
Trying gmin =   4.4025E-08 Warning: Further gmin increment
Trying gmin =   4.4027E-08 Note: One successful gmin step
Trying gmin =   4.4026E-08 Warning: Last gmin step failed
Warning: True gmin stepping failed
Note: Starting dynamic gmin stepping
Trying gmin =   1.0000E-03 Note: One successful gmin step
Trying gmin =   1.0000E-04 Note: One successful gmin step
Trying gmin =   1.0000E-05 Warning: Further gmin increment
Trying gmin =   5.6234E-05 Note: One successful gmin step
Trying gmin =   2.3714E-05 Note: One successful gmin step
Trying gmin =   6.4938E-06 Note: One successful gmin step
Trying gmin =   9.3057E-07 Note: One successful gmin step
Trying gmin =   9.3057E-08 Note: One successful gmin step
Trying gmin =   9.3057E-09 Note: One successful gmin step
Trying gmin =   9.3057E-10 Note: One successful gmin step
Trying gmin =   9.3057E-11 Note: One successful gmin step
Trying gmin =   9.3057E-12 Note: One successful gmin step
Trying gmin =   1.0000E-12 Note: One successful gmin step
Note: Dynamic gmin stepping completed
 Reference value :  2.80000e+00Note: Starting true gmin stepping
Trying gmin =   1.0000E-03 Note: One successful gmin step
Trying gmin =   1.0000E-04 Note: One successful gmin step
Trying gmin =   1.0000E-05 Note: One successful gmin step
Trying gmin =   1.0000E-06 Note: One successful gmin step
Trying gmin =   1.0000E-07 Note: One successful gmin step
Trying gmin =   1.0000E-08 Note: One successful gmin step
Trying gmin =   1.0000E-09 Note: One successful gmin step
Trying gmin =   1.0000E-10 Warning: Further gmin increment
Trying gmin =   5.6234E-10 Note: One successful gmin step
Trying gmin =   2.3714E-10 Warning: Further gmin increment
Trying gmin =   4.5316E-10 Note: One successful gmin step
Trying gmin =   3.2781E-10 Warning: Further gmin increment
Trying gmin =   4.1792E-10 Warning: Further gmin increment
Trying gmin =   4.4408E-10 Note: One successful gmin step
Trying gmin =   4.3080E-10 Note: One successful gmin step
Trying gmin =   4.1163E-10 Warning: Further gmin increment
Trying gmin =   4.2593E-10 Warning: Further gmin increment
Trying gmin =   4.2958E-10 Note: One successful gmin step
Trying gmin =   4.2775E-10 Note: One successful gmin step
Trying gmin =   4.2502E-10 Warning: Further gmin increment
Trying gmin =   4.2706E-10 Note: One successful gmin step
Trying gmin =   4.2604E-10 Warning: Further gmin increment
Trying gmin =   4.2681E-10 Note: One successful gmin step
Trying gmin =   4.2642E-10 Warning: Further gmin increment
Trying gmin =   4.2671E-10 Note: One successful gmin step
Trying gmin =   4.2657E-10 Note: One successful gmin step
Trying gmin =   4.2635E-10 Warning: Further gmin increment
Trying gmin =   4.2651E-10 Note: One successful gmin step
Trying gmin =   4.2643E-10 Warning: Further gmin increment
Trying gmin =   4.2649E-10 Note: One successful gmin step
Trying gmin =   4.2646E-10 Note: One successful gmin step
Trying gmin =   4.2642E-10 Warning: Further gmin increment
Trying gmin =   4.2645E-10 Note: One successful gmin step
Trying gmin =   4.2643E-10 Warning: Last gmin step failed
Warning: True gmin stepping failed
Note: Starting dynamic gmin stepping
Trying gmin =   1.0000E-03 Note: One successful gmin step
Trying gmin =   1.0000E-04 Note: One successful gmin step
Trying gmin =   1.0000E-05 Note: One successful gmin step
Trying gmin =   1.0000E-06 Note: One successful gmin step
Trying gmin =   1.0000E-07 Note: One successful gmin step
Trying gmin =   1.0000E-08 Note: One successful gmin step
Trying gmin =   3.1623E-09 Note: One successful gmin step
Trying gmin =   1.0000E-09 Warning: Further gmin increment
Trying gmin =   2.3714E-09 Note: One successful gmin step
Trying gmin =   1.5399E-09 Note: One successful gmin step
Trying gmin =   1.0000E-09 Note: One successful gmin step
Trying gmin =   5.2330E-10 Note: One successful gmin step
Trying gmin =   1.9810E-10 Note: One successful gmin step
Trying gmin =   4.6138E-11 Note: One successful gmin step
Trying gmin =   5.1861E-12 Note: One successful gmin step
Trying gmin =   1.0000E-12 Note: One successful gmin step
Note: Dynamic gmin stepping completed
 Reference value :  1.32000e+00Note: Starting true gmin stepping
Trying gmin =   1.0000E-03 Note: One successful gmin step
Trying gmin =   1.0000E-04 Note: One successful gmin step
Trying gmin =   1.0000E-05 Note: One successful gmin step
Trying gmin =   1.0000E-06 Note: One successful gmin step
Trying gmin =   1.0000E-07 Note: One successful gmin step
Trying gmin =   1.0000E-08 Note: One successful gmin step
Trying gmin =   3.1623E-09 Note: One successful gmin step
Trying gmin =   5.6234E-10 Note: One successful gmin step
Trying gmin =   1.0000E-10 Warning: Further gmin increment
Trying gmin =   3.6517E-10 Note: One successful gmin step
Trying gmin =   1.9110E-10 Warning: Further gmin increment
Trying gmin =   3.1059E-10 Note: One successful gmin step
Trying gmin =   2.4362E-10 Warning: Further gmin increment
Trying gmin =   2.9229E-10 Note: One successful gmin step
Trying gmin =   2.7508E-10 Note: One successful gmin step
Trying gmin =   2.5113E-10 Note: One successful gmin step
Trying gmin =   2.1907E-10 Note: One successful gmin step
Trying gmin =   1.7848E-10 Note: One successful gmin step
Trying gmin =   1.3125E-10 Note: One successful gmin step
Trying gmin =   8.2771E-11 Note: One successful gmin step
Trying gmin =   4.1451E-11 Note: One successful gmin step
Trying gmin =   1.4690E-11 Note: One successful gmin step
Trying gmin =   3.0993E-12 Note: One successful gmin step
Trying gmin =   1.0000E-12 Note: One successful gmin step
Note: True gmin stepping completed
 Reference value :  1.30000e+00pm                  =  1.201724e+02
Doing analysis at TEMP = 0.000000 and TNOM = 27.000000


No. of Data Rows : 91
psrr100             =  -5.736649e+01
psrr100k            =  -2.023186e+01
Doing analysis at TEMP = 0.000000 and TNOM = 27.000000


No. of Data Rows : 86
temp_coeff = 8.754343e+01
Doing analysis at TEMP = 0.000000 and TNOM = 27.000000


No. of Data Rows : 141
vldo_sup_2          =  1.792624e+00
vldo_sup_2_8        =  1.791858e+00
line_reg = 9.575000e-04
Note: No ".plot", ".print", or ".fourier" lines; no simulations run
vin                 =  1.924317e+00
dropout = 1.603170e-01
