 Reference value :  0.00000e+00
No compatibility mode selected!


Circuit: * ldo netlist 

Doing analysis at TEMP = 85.000000 and TNOM = 27.000000


No. of Data Rows : 1
bg_out = 1.096757e+00
inn = 1.058532e+00
inp = 1.058503e+00
l1#branch = 0.000000e+00
ldo_out = 1.802622e+00
m.xm1.msky130_fd_pr__nfet_g5v0d10v5#body = 2.952742e-11
m.xm1.msky130_fd_pr__nfet_g5v0d10v5#dbody = 5.665713e-11
m.xm1.msky130_fd_pr__nfet_g5v0d10v5#sbody = 3.192512e-11
m.xm2.msky130_fd_pr__pfet_g5v0d10v5#body = 2.500000e+00
m.xm2.msky130_fd_pr__pfet_g5v0d10v5#dbody = 2.500000e+00
m.xm2.msky130_fd_pr__pfet_g5v0d10v5#sbody = 2.500000e+00
m.xm3.msky130_fd_pr__pfet_g5v0d10v5#body = 2.500000e+00
m.xm3.msky130_fd_pr__pfet_g5v0d10v5#dbody = 2.500000e+00
m.xm3.msky130_fd_pr__pfet_g5v0d10v5#sbody = 2.500000e+00
m.xm4.msky130_fd_pr__pfet_g5v0d10v5#body = 2.500000e+00
m.xm4.msky130_fd_pr__pfet_g5v0d10v5#dbody = 2.500000e+00
m.xm4.msky130_fd_pr__pfet_g5v0d10v5#sbody = 2.500000e+00
m.xm5.msky130_fd_pr__pfet_g5v0d10v5#body = 2.500000e+00
m.xm5.msky130_fd_pr__pfet_g5v0d10v5#dbody = 2.500000e+00
m.xm5.msky130_fd_pr__pfet_g5v0d10v5#sbody = 2.500000e+00
m.xm6.msky130_fd_pr__nfet_g5v0d10v5#body = 1.907645e-11
m.xm6.msky130_fd_pr__nfet_g5v0d10v5#dbody = 4.769101e-11
m.xm6.msky130_fd_pr__nfet_g5v0d10v5#sbody = 9.538335e-12
m.xm7.msky130_fd_pr__pfet_g5v0d10v5#body = 2.500000e+00
m.xm7.msky130_fd_pr__pfet_g5v0d10v5#dbody = 2.500000e+00
m.xm7.msky130_fd_pr__pfet_g5v0d10v5#sbody = 2.500000e+00
m.xm8.msky130_fd_pr__pfet_g5v0d10v5#body = 2.500000e+00
m.xm8.msky130_fd_pr__pfet_g5v0d10v5#dbody = 2.500000e+00
m.xm8.msky130_fd_pr__pfet_g5v0d10v5#sbody = 2.500000e+00
m.xm9.msky130_fd_pr__nfet_g5v0d10v5#body = 2.765569e-11
m.xm9.msky130_fd_pr__nfet_g5v0d10v5#dbody = 5.491524e-11
m.xm9.msky130_fd_pr__nfet_g5v0d10v5#sbody = 2.805182e-11
m.xm10.msky130_fd_pr__nfet_g5v0d10v5#body = 2.743796e-11
m.xm10.msky130_fd_pr__nfet_g5v0d10v5#dbody = 5.437092e-11
m.xm10.msky130_fd_pr__nfet_g5v0d10v5#sbody = 2.794295e-11
m.xm11.msky130_fd_pr__pfet_g5v0d10v5#body = 2.500000e+00
m.xm11.msky130_fd_pr__pfet_g5v0d10v5#dbody = 2.500000e+00
m.xm11.msky130_fd_pr__pfet_g5v0d10v5#sbody = 2.500000e+00
m.xm12.msky130_fd_pr__pfet_g5v0d10v5#body = 2.500000e+00
m.xm12.msky130_fd_pr__pfet_g5v0d10v5#dbody = 2.500000e+00
m.xm12.msky130_fd_pr__pfet_g5v0d10v5#sbody = 2.500000e+00
m.xm13.msky130_fd_pr__nfet_g5v0d10v5#body = 5.464584e-12
m.xm13.msky130_fd_pr__nfet_g5v0d10v5#dbody = 1.366139e-11
m.xm13.msky130_fd_pr__nfet_g5v0d10v5#sbody = 2.732357e-12
m.xm14.msky130_fd_pr__pfet_g5v0d10v5#body = 2.500000e+00
m.xm14.msky130_fd_pr__pfet_g5v0d10v5#dbody = 2.500000e+00
m.xm14.msky130_fd_pr__pfet_g5v0d10v5#sbody = 2.500000e+00
m.xm15.msky130_fd_pr__nfet_g5v0d10v5#body = 2.619290e-14
m.xm15.msky130_fd_pr__nfet_g5v0d10v5#dbody = 6.548043e-14
m.xm15.msky130_fd_pr__nfet_g5v0d10v5#sbody = 1.309828e-14
m.xm16.msky130_fd_pr__nfet_g5v0d10v5#body = 5.496202e-11
m.xm16.msky130_fd_pr__nfet_g5v0d10v5#dbody = 1.004614e-10
m.xm16.msky130_fd_pr__nfet_g5v0d10v5#sbody = 6.442468e-11
m.xm17.msky130_fd_pr__pfet_g5v0d10v5#body = 2.500000e+00
m.xm17.msky130_fd_pr__pfet_g5v0d10v5#dbody = 2.500000e+00
m.xm17.msky130_fd_pr__pfet_g5v0d10v5#sbody = 2.500000e+00
m.xm18.msky130_fd_pr__nfet_g5v0d10v5#body = 1.938088e-11
m.xm18.msky130_fd_pr__nfet_g5v0d10v5#dbody = 4.845103e-11
m.xm18.msky130_fd_pr__nfet_g5v0d10v5#sbody = 9.690517e-12
m.xm19.msky130_fd_pr__nfet_g5v0d10v5#body = 2.957192e-11
m.xm19.msky130_fd_pr__nfet_g5v0d10v5#dbody = 5.676838e-11
m.xm19.msky130_fd_pr__nfet_g5v0d10v5#sbody = 3.194737e-11
m.xm20.msky130_fd_pr__nfet_g5v0d10v5#body = 1.235201e-11
m.xm20.msky130_fd_pr__nfet_g5v0d10v5#dbody = 3.087995e-11
m.xm20.msky130_fd_pr__nfet_g5v0d10v5#sbody = 6.176079e-12
m.xm22.msky130_fd_pr__nfet_g5v0d10v5#body = 1.187524e-11
m.xm22.msky130_fd_pr__nfet_g5v0d10v5#dbody = 2.968800e-11
m.xm22.msky130_fd_pr__nfet_g5v0d10v5#sbody = 5.937727e-12
m.xm24.msky130_fd_pr__pfet_g5v0d10v5#body = 2.500000e+00
m.xm24.msky130_fd_pr__pfet_g5v0d10v5#dbody = 2.500000e+00
m.xm24.msky130_fd_pr__pfet_g5v0d10v5#sbody = 2.500000e+00
m.xm26.msky130_fd_pr__pfet_g5v0d10v5#body = 2.500000e+00
m.xm26.msky130_fd_pr__pfet_g5v0d10v5#dbody = 2.500000e+00
m.xm26.msky130_fd_pr__pfet_g5v0d10v5#sbody = 2.500000e+00
mir = 1.256522e+00
net1 = 6.284824e-01
net2 = 5.069764e-05
net3 = 7.017297e-01
net4 = 2.673759e-01
net5 = 1.260082e+00
net6 = 8.432530e-01
net7 = 7.017003e-01
net8 = 1.338685e+00
net9 = 1.356103e+00
net10 = 2.816260e-01
net11 = 1.394853e+00
net12 = 1.394853e+00
net13 = 0.000000e+00
out = 1.394853e+00
pos = 1.096938e+00
q.xq2.qsky130_fd_pr__pnp_05v5_w0p68l0p68#collcx = 2.838386e-03
q.xq3.qsky130_fd_pr__pnp_05v5_w0p68l0p68#collcx = 3.580549e-04
q.xq4.qsky130_fd_pr__pnp_05v5_w0p68l0p68#collcx = 3.580549e-04
q.xq8.qsky130_fd_pr__pnp_05v5_w0p68l0p68#collcx = 3.580549e-04
q.xq10.qsky130_fd_pr__pnp_05v5_w0p68l0p68#collcx = 3.580549e-04
q.xq12.qsky130_fd_pr__pnp_05v5_w0p68l0p68#collcx = 3.580549e-04
q.xq14.qsky130_fd_pr__pnp_05v5_w0p68l0p68#collcx = 3.580549e-04
q.xq16.qsky130_fd_pr__pnp_05v5_w0p68l0p68#collcx = 3.580549e-04
q.xq18.qsky130_fd_pr__pnp_05v5_w0p68l0p68#collcx = 3.580549e-04
vb = 8.325874e-01
vdd = 2.500000e+00
vs#branch = -1.01485e-02
vt#branch = 0.000000e+00
xc1.a = 0.000000e+00
xc1.b1 = 0.000000e+00
xc3.a = 1.394853e+00
xc3.b1 = 1.394853e+00
xr1.xsky130_fd_pr__res_xhigh_po_0p69.ra = 7.101236e-01
xr2.xsky130_fd_pr__res_xhigh_po_0p69.ra = 7.101530e-01
xr3.xsky130_fd_pr__res_xhigh_po_0p69.ra = 5.153222e-03
xr4.xsky130_fd_pr__res_xhigh_po_0p69.ra = 6.318492e-01
xr5.xsky130_fd_pr__res_xhigh_po_0p69.ra = 5.152993e-03
xr6.xsky130_fd_pr__res_xhigh_po_0p69.ra = 8.909454e-03
xr7.xsky130_fd_pr__res_xhigh_po_0p69.ra = 1.394853e+00
xr8.xsky130_fd_pr__res_xhigh_po_0p69.ra = 1.110476e+00
xr9.xsky130_fd_pr__res_xhigh_po_0p69.ra = 1.397594e-02
Doing analysis at TEMP = 85.000000 and TNOM = 27.000000


No. of Data Rows : 91
Error: no such vector PM
Note: Starting true gmin stepping
Trying gmin =   1.0000E-03 Note: One successful gmin step
Trying gmin =   1.0000E-04 Note: One successful gmin step
Trying gmin =   1.0000E-05 Note: One successful gmin step
Trying gmin =   1.0000E-06 Note: One successful gmin step
Trying gmin =   1.0000E-07 Note: One successful gmin step
Trying gmin =   1.0000E-08 Warning: Further gmin increment
Trying gmin =   5.6234E-08 Note: One successful gmin step
Trying gmin =   2.3714E-08 Warning: Further gmin increment
Trying gmin =   4.5316E-08 Note: One successful gmin step
Trying gmin =   3.2781E-08 Warning: Further gmin increment
Trying gmin =   4.1792E-08 Note: One successful gmin step
Trying gmin =   3.7013E-08 Note: One successful gmin step
Trying gmin =   3.0850E-08 Note: One successful gmin step
Trying gmin =   2.3475E-08 Note: One successful gmin step
Trying gmin =   1.5582E-08 Note: One successful gmin step
Trying gmin =   8.4267E-09 Note: One successful gmin step
Trying gmin =   3.3513E-09 Note: One successful gmin step
Trying gmin =   8.4049E-10 Note: One successful gmin step
Trying gmin =   1.0556E-10 Note: One successful gmin step
Trying gmin =   1.0556E-11 Note: One successful gmin step
Trying gmin =   1.0556E-12 Note: One successful gmin step
Trying gmin =   1.0000E-12 Note: One successful gmin step
Note: True gmin stepping completed
 Reference value :  1.36000e+00Note: Starting true gmin stepping
Trying gmin =   1.0000E-03 Note: One successful gmin step
Trying gmin =   1.0000E-04 Note: One successful gmin step
Trying gmin =   1.0000E-05 Note: One successful gmin step
Trying gmin =   1.0000E-06 Note: One successful gmin step
Trying gmin =   1.0000E-07 Note: One successful gmin step
Trying gmin =   1.0000E-08 Warning: Further gmin increment
Trying gmin =   5.6234E-08 Note: One successful gmin step
Trying gmin =   2.3714E-08 Warning: Further gmin increment
Trying gmin =   4.5316E-08 Note: One successful gmin step
Trying gmin =   3.2781E-08 Note: One successful gmin step
Trying gmin =   2.0169E-08 Note: One successful gmin step
Trying gmin =   9.7338E-09 Note: One successful gmin step
Trying gmin =   3.2634E-09 Note: One successful gmin step
Trying gmin =   6.3352E-10 Note: One successful gmin step
Trying gmin =   6.3352E-11 Note: One successful gmin step
Trying gmin =   6.3352E-12 Note: One successful gmin step
Trying gmin =   1.0000E-12 Note: One successful gmin step
Note: True gmin stepping completed

Error: measure  pm  (AT) : out of interval
 meas ac pm find p when vdb(ldo_out)=0 failed!

Doing analysis at TEMP = 85.000000 and TNOM = 27.000000


No. of Data Rows : 91
psrr100             =  -5.546774e+01
psrr100k            =  -2.472148e+01
Doing analysis at TEMP = 85.000000 and TNOM = 27.000000


No. of Data Rows : 86
temp_coeff = 2.554862e+01
Doing analysis at TEMP = 85.000000 and TNOM = 27.000000


No. of Data Rows : 141
vldo_sup_2          =  1.801394e+00
vldo_sup_2_8        =  1.803262e+00
line_reg = 2.335000e-03
Note: No ".plot", ".print", or ".fourier" lines; no simulations run
vin                 =  1.788068e+00
dropout = 2.406800e-02
