 Reference value :  0.00000e+00
No compatibility mode selected!


Circuit: * ldo netlist 

Doing analysis at TEMP = 27.000000 and TNOM = 27.000000


No. of Data Rows : 1
bg_out = 1.091292e+00
inn = 1.132230e+00
inp = 1.132192e+00
l1#branch = 0.000000e+00
ldo_out = 1.793331e+00
m.xm1.msky130_fd_pr__nfet_g5v0d10v5#body = 1.507998e-11
m.xm1.msky130_fd_pr__nfet_g5v0d10v5#dbody = 3.127352e-11
m.xm1.msky130_fd_pr__nfet_g5v0d10v5#sbody = 1.396641e-11
m.xm2.msky130_fd_pr__pfet_g5v0d10v5#body = 2.100000e+00
m.xm2.msky130_fd_pr__pfet_g5v0d10v5#dbody = 2.100000e+00
m.xm2.msky130_fd_pr__pfet_g5v0d10v5#sbody = 2.100000e+00
m.xm3.msky130_fd_pr__pfet_g5v0d10v5#body = 2.100000e+00
m.xm3.msky130_fd_pr__pfet_g5v0d10v5#dbody = 2.100000e+00
m.xm3.msky130_fd_pr__pfet_g5v0d10v5#sbody = 2.100000e+00
m.xm4.msky130_fd_pr__pfet_g5v0d10v5#body = 2.100000e+00
m.xm4.msky130_fd_pr__pfet_g5v0d10v5#dbody = 2.100000e+00
m.xm4.msky130_fd_pr__pfet_g5v0d10v5#sbody = 2.100000e+00
m.xm5.msky130_fd_pr__pfet_g5v0d10v5#body = 2.100000e+00
m.xm5.msky130_fd_pr__pfet_g5v0d10v5#dbody = 2.100000e+00
m.xm5.msky130_fd_pr__pfet_g5v0d10v5#sbody = 2.100000e+00
m.xm6.msky130_fd_pr__nfet_g5v0d10v5#body = 1.127704e-11
m.xm6.msky130_fd_pr__nfet_g5v0d10v5#dbody = 2.819259e-11
m.xm6.msky130_fd_pr__nfet_g5v0d10v5#sbody = 5.638523e-12
m.xm7.msky130_fd_pr__pfet_g5v0d10v5#body = 2.100000e+00
m.xm7.msky130_fd_pr__pfet_g5v0d10v5#dbody = 2.100000e+00
m.xm7.msky130_fd_pr__pfet_g5v0d10v5#sbody = 2.100000e+00
m.xm8.msky130_fd_pr__pfet_g5v0d10v5#body = 2.100000e+00
m.xm8.msky130_fd_pr__pfet_g5v0d10v5#dbody = 2.100000e+00
m.xm8.msky130_fd_pr__pfet_g5v0d10v5#sbody = 2.100000e+00
m.xm9.msky130_fd_pr__nfet_g5v0d10v5#body = 1.568112e-11
m.xm9.msky130_fd_pr__nfet_g5v0d10v5#dbody = 3.381496e-11
m.xm9.msky130_fd_pr__nfet_g5v0d10v5#sbody = 1.322840e-11
m.xm10.msky130_fd_pr__nfet_g5v0d10v5#body = 1.544438e-11
m.xm10.msky130_fd_pr__nfet_g5v0d10v5#dbody = 3.322310e-11
m.xm10.msky130_fd_pr__nfet_g5v0d10v5#sbody = 1.311003e-11
m.xm11.msky130_fd_pr__pfet_g5v0d10v5#body = 2.100000e+00
m.xm11.msky130_fd_pr__pfet_g5v0d10v5#dbody = 2.100000e+00
m.xm11.msky130_fd_pr__pfet_g5v0d10v5#sbody = 2.100000e+00
m.xm12.msky130_fd_pr__pfet_g5v0d10v5#body = 2.100000e+00
m.xm12.msky130_fd_pr__pfet_g5v0d10v5#dbody = 2.100000e+00
m.xm12.msky130_fd_pr__pfet_g5v0d10v5#sbody = 2.100000e+00
m.xm13.msky130_fd_pr__nfet_g5v0d10v5#body = 2.692564e-12
m.xm13.msky130_fd_pr__nfet_g5v0d10v5#dbody = 6.731399e-12
m.xm13.msky130_fd_pr__nfet_g5v0d10v5#sbody = 1.346292e-12
m.xm14.msky130_fd_pr__pfet_g5v0d10v5#body = 2.100000e+00
m.xm14.msky130_fd_pr__pfet_g5v0d10v5#dbody = 2.100000e+00
m.xm14.msky130_fd_pr__pfet_g5v0d10v5#sbody = 2.100000e+00
m.xm15.msky130_fd_pr__nfet_g5v0d10v5#body = 1.255682e-16
m.xm15.msky130_fd_pr__nfet_g5v0d10v5#dbody = 3.139118e-16
m.xm15.msky130_fd_pr__nfet_g5v0d10v5#sbody = 6.279274e-17
m.xm16.msky130_fd_pr__nfet_g5v0d10v5#body = 4.041153e-11
m.xm16.msky130_fd_pr__nfet_g5v0d10v5#dbody = 7.271441e-11
m.xm16.msky130_fd_pr__nfet_g5v0d10v5#sbody = 4.852017e-11
m.xm17.msky130_fd_pr__pfet_g5v0d10v5#body = 2.100000e+00
m.xm17.msky130_fd_pr__pfet_g5v0d10v5#dbody = 2.100000e+00
m.xm17.msky130_fd_pr__pfet_g5v0d10v5#sbody = 2.100000e+00
m.xm18.msky130_fd_pr__nfet_g5v0d10v5#body = 1.728590e-11
m.xm18.msky130_fd_pr__nfet_g5v0d10v5#dbody = 4.321286e-11
m.xm18.msky130_fd_pr__nfet_g5v0d10v5#sbody = 8.642960e-12
m.xm19.msky130_fd_pr__nfet_g5v0d10v5#body = 1.513320e-11
m.xm19.msky130_fd_pr__nfet_g5v0d10v5#dbody = 3.140658e-11
m.xm19.msky130_fd_pr__nfet_g5v0d10v5#sbody = 1.399302e-11
m.xm20.msky130_fd_pr__nfet_g5v0d10v5#body = 1.129719e-11
m.xm20.msky130_fd_pr__nfet_g5v0d10v5#dbody = 2.824295e-11
m.xm20.msky130_fd_pr__nfet_g5v0d10v5#sbody = 5.648606e-12
m.xm22.msky130_fd_pr__nfet_g5v0d10v5#body = 3.215922e-12
m.xm22.msky130_fd_pr__nfet_g5v0d10v5#dbody = 8.039799e-12
m.xm22.msky130_fd_pr__nfet_g5v0d10v5#sbody = 1.607966e-12
m.xm24.msky130_fd_pr__pfet_g5v0d10v5#body = 2.100000e+00
m.xm24.msky130_fd_pr__pfet_g5v0d10v5#dbody = 2.100000e+00
m.xm24.msky130_fd_pr__pfet_g5v0d10v5#sbody = 2.100000e+00
m.xm26.msky130_fd_pr__pfet_g5v0d10v5#body = 2.100000e+00
m.xm26.msky130_fd_pr__pfet_g5v0d10v5#dbody = 2.100000e+00
m.xm26.msky130_fd_pr__pfet_g5v0d10v5#sbody = 2.100000e+00
mir = 9.489955e-01
net1 = 7.192087e-01
net2 = 9.662064e-06
net3 = 7.788689e-01
net4 = 2.567107e-01
net5 = 9.532534e-01
net6 = 9.015998e-01
net7 = 7.788294e-01
net8 = 1.019799e+00
net9 = 1.038739e+00
net10 = 2.152763e-01
net11 = 1.382668e+00
net12 = 1.382668e+00
net13 = 0.000000e+00
out = 1.382668e+00
pos = 1.091495e+00
q.xq2.qsky130_fd_pr__pnp_05v5_w0p68l0p68#collcx = 2.148515e-03
q.xq3.qsky130_fd_pr__pnp_05v5_w0p68l0p68#collcx = 2.698935e-04
q.xq4.qsky130_fd_pr__pnp_05v5_w0p68l0p68#collcx = 2.698935e-04
q.xq8.qsky130_fd_pr__pnp_05v5_w0p68l0p68#collcx = 2.698935e-04
q.xq10.qsky130_fd_pr__pnp_05v5_w0p68l0p68#collcx = 2.698935e-04
q.xq12.qsky130_fd_pr__pnp_05v5_w0p68l0p68#collcx = 2.698935e-04
q.xq14.qsky130_fd_pr__pnp_05v5_w0p68l0p68#collcx = 2.698935e-04
q.xq16.qsky130_fd_pr__pnp_05v5_w0p68l0p68#collcx = 2.698935e-04
q.xq18.qsky130_fd_pr__pnp_05v5_w0p68l0p68#collcx = 2.698935e-04
vb = 9.036460e-01
vdd = 2.100000e+00
vs#branch = -1.71928e-04
vt#branch = 0.000000e+00
xc1.a = 0.000000e+00
xc1.b1 = 0.000000e+00
xc3.a = 1.382668e+00
xc3.b1 = 1.382668e+00
xr1.xsky130_fd_pr__res_xhigh_po_0p69.ra = 7.865483e-01
xr2.xsky130_fd_pr__res_xhigh_po_0p69.ra = 7.865879e-01
xr3.xsky130_fd_pr__res_xhigh_po_0p69.ra = 5.320894e-03
xr4.xsky130_fd_pr__res_xhigh_po_0p69.ra = 7.217503e-01
xr5.xsky130_fd_pr__res_xhigh_po_0p69.ra = 5.320606e-03
xr6.xsky130_fd_pr__res_xhigh_po_0p69.ra = 8.191331e-03
xr7.xsky130_fd_pr__res_xhigh_po_0p69.ra = 1.382668e+00
xr8.xsky130_fd_pr__res_xhigh_po_0p69.ra = 1.103948e+00
xr9.xsky130_fd_pr__res_xhigh_po_0p69.ra = 1.285428e-02
Doing analysis at TEMP = 27.000000 and TNOM = 27.000000


No. of Data Rows : 91
Note: Starting true gmin stepping
Trying gmin =   1.0000E-03 Note: One successful gmin step
Trying gmin =   1.0000E-04 Note: One successful gmin step
Trying gmin =   1.0000E-05 Note: One successful gmin step
Trying gmin =   1.0000E-06 Note: One successful gmin step
Trying gmin =   1.0000E-07 Note: One successful gmin step
Trying gmin =   1.0000E-08 Warning: Further gmin increment
Trying gmin =   5.6234E-08 Warning: Further gmin increment
Trying gmin =   8.6596E-08 Note: One successful gmin step
Trying gmin =   6.9783E-08 Warning: Further gmin increment
Trying gmin =   8.2047E-08 Note: One successful gmin step
Trying gmin =   7.5667E-08 Note: One successful gmin step
Trying gmin =   6.7015E-08 Warning: Further gmin increment
Trying gmin =   7.3404E-08 Note: One successful gmin step
Trying gmin =   7.0137E-08 Warning: Further gmin increment
Trying gmin =   7.2574E-08 Warning: Further gmin increment
Trying gmin =   7.3196E-08 Note: One successful gmin step
Trying gmin =   7.2884E-08 Warning: Further gmin increment
Trying gmin =   7.3118E-08 Note: One successful gmin step
Trying gmin =   7.3001E-08 Warning: Further gmin increment
Trying gmin =   7.3089E-08 Warning: Further gmin increment
Trying gmin =   7.3111E-08 Note: One successful gmin step
Trying gmin =   7.3100E-08 Warning: Further gmin increment
Trying gmin =   7.3108E-08 Note: One successful gmin step
Trying gmin =   7.3104E-08 Note: One successful gmin step
Trying gmin =   7.3097E-08 Warning: Further gmin increment
Trying gmin =   7.3102E-08 Note: One successful gmin step
Trying gmin =   7.3100E-08 Warning: Last gmin step failed
Warning: True gmin stepping failed
Note: Starting dynamic gmin stepping
Trying gmin =   1.0000E-03 Note: One successful gmin step
Trying gmin =   1.0000E-04 Note: One successful gmin step
Trying gmin =   1.0000E-05 Note: One successful gmin step
Trying gmin =   1.0000E-06 Warning: Further gmin increment
Trying gmin =   5.6234E-06 Warning: Further gmin increment
Trying gmin =   8.6596E-06 Note: One successful gmin step
Trying gmin =   7.4989E-06 Note: One successful gmin step
Trying gmin =   6.0430E-06 Note: One successful gmin step
Trying gmin =   4.8697E-06 Note: One successful gmin step
Trying gmin =   3.5227E-06 Note: One successful gmin step
Trying gmin =   2.1674E-06 Note: One successful gmin step
Trying gmin =   1.0460E-06 Note: One successful gmin step
Trying gmin =   3.5069E-07 Note: One successful gmin step
Trying gmin =   6.8078E-08 Warning: Further gmin increment
Trying gmin =   2.3278E-07 Warning: Further gmin increment
Trying gmin =   3.1654E-07 Warning: Further gmin increment
Trying gmin =   3.4182E-07 Note: One successful gmin step
Trying gmin =   3.2894E-07 Warning: Further gmin increment
Trying gmin =   3.3855E-07 Note: One successful gmin step
Trying gmin =   3.3371E-07 Warning: Further gmin increment
Trying gmin =   3.3734E-07 Warning: Further gmin increment
Trying gmin =   3.3825E-07 Note: One successful gmin step
Trying gmin =   3.3779E-07 Note: One successful gmin step
Trying gmin =   3.3711E-07 Warning: Further gmin increment
Trying gmin =   3.3762E-07 Note: One successful gmin step
Trying gmin =   3.3736E-07 Warning: Further gmin increment
Trying gmin =   3.3756E-07 Warning: Further gmin increment
Trying gmin =   3.3760E-07 Warning: Last gmin step failed
Warning: Dynamic gmin stepping failed
Note: Starting source stepping
Supplies reduced to   0.0000% Note: One successful source step
Supplies reduced to   0.1000% Note: One successful source step
Supplies reduced to   0.2000% Note: One successful source step
Supplies reduced to   0.3500% Note: One successful source step
Supplies reduced to   0.5750% Note: One successful source step
Supplies reduced to   0.9125% Note: One successful source step
Supplies reduced to   1.4188% Note: One successful source step
Supplies reduced to   2.1781% Note: One successful source step
Supplies reduced to   3.3172% Note: One successful source step
Supplies reduced to   5.0258% Note: One successful source step
Supplies reduced to   7.5887% Note: One successful source step
Supplies reduced to  11.4330% Note: One successful source step
Supplies reduced to  17.1995% Note: One successful source step
Supplies reduced to  25.8493% Supplies reduced to  17.1995% Note: One successful source step
Supplies reduced to  18.1995% Note: One successful source step
Supplies reduced to  19.6995% Note: One successful source step
Supplies reduced to  21.9495% Note: One successful source step
Supplies reduced to  25.3245% Note: One successful source step
Supplies reduced to  28.6995% Note: One successful source step
Supplies reduced to  33.7620% Note: One successful source step
Supplies reduced to  41.3558% Note: One successful source step
Supplies reduced to  52.7464% Note: One successful source step
Supplies reduced to  64.1370% Note: One successful source step
Supplies reduced to  81.2229% Supplies reduced to  64.1370% Note: One successful source step
Supplies reduced to  65.1370% Note: One successful source step
Supplies reduced to  66.6370% Note: One successful source step
Supplies reduced to  68.8870% Note: One successful source step
Supplies reduced to  72.2620% Supplies reduced to  68.8870% Note: One successful source step
Supplies reduced to  69.3933% Note: One successful source step
Supplies reduced to  70.1526% Note: One successful source step
Supplies reduced to  71.2917% Note: One successful source step
Supplies reduced to  73.0003% Supplies reduced to  71.2917% Note: One successful source step
Supplies reduced to  71.5480% Supplies reduced to  71.2917% Note: One successful source step
Supplies reduced to  71.3301% Note: One successful source step
Supplies reduced to  71.3878% Note: One successful source step
Supplies reduced to  71.4743% Supplies reduced to  71.3878% Note: One successful source step
Supplies reduced to  71.4008% Supplies reduced to  71.3878% Note: One successful source step
Supplies reduced to  71.3898% Note: One successful source step
Supplies reduced to  71.3927% Note: One successful source step
Supplies reduced to  71.3971% Supplies reduced to  71.3927% Note: One successful source step
Supplies reduced to  71.3933% Note: One successful source step
Supplies reduced to  71.3943% Note: One successful source step
Supplies reduced to  71.3958% Note: One successful source step
Supplies reduced to  71.3980% Supplies reduced to  71.3958% Note: One successful source step
Supplies reduced to  71.3961% Note: One successful source step
Supplies reduced to  71.3966% Note: One successful source step
Supplies reduced to  71.3974% Supplies reduced to  71.3966% Note: One successful source step
Supplies reduced to  71.3967% Note: One successful source step
Supplies reduced to  71.3969% Supplies reduced to  71.3967% Note: One successful source step
Supplies reduced to  71.3968% Note: One successful source step
Supplies reduced to  71.3968% Note: One successful source step
Supplies reduced to  71.3969% Note: One successful source step
Supplies reduced to  71.3969% Warning: source stepping failed
doAnalyses: Too many iterations without convergence

dc simulation(s) aborted
Error(parse.c--checkvalid): vldo_sup_2_8: zero length vector.
Error: RHS "abs((vldo_sup_2_8-vldo_sup_2)/0.8)" invalid
Error(parse.c--checkvalid): line_reg: zero length vector.
Error(parse.c--checkvalid): vin: zero length vector.
Error: RHS "vin-1.764" invalid
Error(parse.c--checkvalid): dropout: zero length vector.
Error: no such vector dropout
Note: No ".plot", ".print", or ".fourier" lines; no simulations run
pm                  =  6.792006e+01
Doing analysis at TEMP = 27.000000 and TNOM = 27.000000


No. of Data Rows : 91
psrr100             =  -6.671944e+01
psrr100k            =  -2.794182e+01
Doing analysis at TEMP = 27.000000 and TNOM = 27.000000


No. of Data Rows : 86
temp_coeff = 5.531085e+01
Doing analysis at TEMP = 27.000000 and TNOM = 27.000000


Error: measure  vldo_sup_2  (AT) : out of interval
 meas dc vldo_sup_2 find ldo_out at=2 failed!


Error: measure  vldo_sup_2_8  (AT) : out of interval
 meas dc vldo_sup_2_8 find ldo_out at=2.8 failed!


Error: measure  vin  (WHEN) : out of interval
 meas dc vin when v(ldo_out)=1.764 failed!

