 Reference value :  0.00000e+00
No compatibility mode selected!


Circuit: * ldo netlist 

Doing analysis at TEMP = 85.000000 and TNOM = 27.000000


No. of Data Rows : 1
bg_out = 1.203220e+00
inn = 1.149946e+00
inp = 1.149895e+00
l1#branch = 0.000000e+00
ldo_out = 1.810369e+00
m.xm1.msky130_fd_pr__nfet_g5v0d10v5#body = 2.515079e-11
m.xm1.msky130_fd_pr__nfet_g5v0d10v5#dbody = 4.414712e-11
m.xm1.msky130_fd_pr__nfet_g5v0d10v5#sbody = 3.130524e-11
m.xm2.msky130_fd_pr__pfet_g5v0d10v5#body = 2.100000e+00
m.xm2.msky130_fd_pr__pfet_g5v0d10v5#dbody = 2.100000e+00
m.xm2.msky130_fd_pr__pfet_g5v0d10v5#sbody = 2.100000e+00
m.xm3.msky130_fd_pr__pfet_g5v0d10v5#body = 2.100000e+00
m.xm3.msky130_fd_pr__pfet_g5v0d10v5#dbody = 2.100000e+00
m.xm3.msky130_fd_pr__pfet_g5v0d10v5#sbody = 2.100000e+00
m.xm4.msky130_fd_pr__pfet_g5v0d10v5#body = 2.100000e+00
m.xm4.msky130_fd_pr__pfet_g5v0d10v5#dbody = 2.100000e+00
m.xm4.msky130_fd_pr__pfet_g5v0d10v5#sbody = 2.100000e+00
m.xm5.msky130_fd_pr__pfet_g5v0d10v5#body = 2.100000e+00
m.xm5.msky130_fd_pr__pfet_g5v0d10v5#dbody = 2.100000e+00
m.xm5.msky130_fd_pr__pfet_g5v0d10v5#sbody = 2.100000e+00
m.xm6.msky130_fd_pr__nfet_g5v0d10v5#body = 1.916383e-11
m.xm6.msky130_fd_pr__nfet_g5v0d10v5#dbody = 4.790946e-11
m.xm6.msky130_fd_pr__nfet_g5v0d10v5#sbody = 9.582034e-12
m.xm7.msky130_fd_pr__pfet_g5v0d10v5#body = 2.100000e+00
m.xm7.msky130_fd_pr__pfet_g5v0d10v5#dbody = 2.100000e+00
m.xm7.msky130_fd_pr__pfet_g5v0d10v5#sbody = 2.100000e+00
m.xm8.msky130_fd_pr__pfet_g5v0d10v5#body = 2.100000e+00
m.xm8.msky130_fd_pr__pfet_g5v0d10v5#dbody = 2.100000e+00
m.xm8.msky130_fd_pr__pfet_g5v0d10v5#sbody = 2.100000e+00
m.xm9.msky130_fd_pr__nfet_g5v0d10v5#body = 2.344068e-11
m.xm9.msky130_fd_pr__nfet_g5v0d10v5#dbody = 4.254725e-11
m.xm9.msky130_fd_pr__nfet_g5v0d10v5#sbody = 2.777480e-11
m.xm10.msky130_fd_pr__nfet_g5v0d10v5#body = 2.355086e-11
m.xm10.msky130_fd_pr__nfet_g5v0d10v5#dbody = 4.282269e-11
m.xm10.msky130_fd_pr__nfet_g5v0d10v5#sbody = 2.782989e-11
m.xm11.msky130_fd_pr__pfet_g5v0d10v5#body = 2.100000e+00
m.xm11.msky130_fd_pr__pfet_g5v0d10v5#dbody = 2.100000e+00
m.xm11.msky130_fd_pr__pfet_g5v0d10v5#sbody = 2.100000e+00
m.xm12.msky130_fd_pr__pfet_g5v0d10v5#body = 2.100000e+00
m.xm12.msky130_fd_pr__pfet_g5v0d10v5#dbody = 2.100000e+00
m.xm12.msky130_fd_pr__pfet_g5v0d10v5#sbody = 2.100000e+00
m.xm13.msky130_fd_pr__nfet_g5v0d10v5#body = 6.379522e-12
m.xm13.msky130_fd_pr__nfet_g5v0d10v5#dbody = 1.594873e-11
m.xm13.msky130_fd_pr__nfet_g5v0d10v5#sbody = 3.189833e-12
m.xm14.msky130_fd_pr__pfet_g5v0d10v5#body = 2.100000e+00
m.xm14.msky130_fd_pr__pfet_g5v0d10v5#dbody = 2.100000e+00
m.xm14.msky130_fd_pr__pfet_g5v0d10v5#sbody = 2.100000e+00
m.xm15.msky130_fd_pr__nfet_g5v0d10v5#body = 4.408695e-16
m.xm15.msky130_fd_pr__nfet_g5v0d10v5#dbody = 1.102136e-15
m.xm15.msky130_fd_pr__nfet_g5v0d10v5#sbody = 2.204724e-16
m.xm16.msky130_fd_pr__nfet_g5v0d10v5#body = 5.110469e-11
m.xm16.msky130_fd_pr__nfet_g5v0d10v5#dbody = 8.853272e-11
m.xm16.msky130_fd_pr__nfet_g5v0d10v5#sbody = 6.478136e-11
m.xm17.msky130_fd_pr__pfet_g5v0d10v5#body = 2.100000e+00
m.xm17.msky130_fd_pr__pfet_g5v0d10v5#dbody = 2.100000e+00
m.xm17.msky130_fd_pr__pfet_g5v0d10v5#sbody = 2.100000e+00
m.xm18.msky130_fd_pr__nfet_g5v0d10v5#body = 5.233728e-12
m.xm18.msky130_fd_pr__nfet_g5v0d10v5#dbody = 1.308425e-11
m.xm18.msky130_fd_pr__nfet_g5v0d10v5#sbody = 2.616933e-12
m.xm19.msky130_fd_pr__nfet_g5v0d10v5#body = 2.520125e-11
m.xm19.msky130_fd_pr__nfet_g5v0d10v5#dbody = 4.427329e-11
m.xm19.msky130_fd_pr__nfet_g5v0d10v5#sbody = 3.133048e-11
m.xm20.msky130_fd_pr__nfet_g5v0d10v5#body = 1.243727e-11
m.xm20.msky130_fd_pr__nfet_g5v0d10v5#dbody = 3.109309e-11
m.xm20.msky130_fd_pr__nfet_g5v0d10v5#sbody = 6.218712e-12
m.xm22.msky130_fd_pr__nfet_g5v0d10v5#body = 1.266036e-11
m.xm22.msky130_fd_pr__nfet_g5v0d10v5#dbody = 3.165080e-11
m.xm22.msky130_fd_pr__nfet_g5v0d10v5#sbody = 6.330297e-12
m.xm24.msky130_fd_pr__pfet_g5v0d10v5#body = 2.100000e+00
m.xm24.msky130_fd_pr__pfet_g5v0d10v5#dbody = 2.100000e+00
m.xm24.msky130_fd_pr__pfet_g5v0d10v5#sbody = 2.100000e+00
m.xm26.msky130_fd_pr__pfet_g5v0d10v5#body = 2.100000e+00
m.xm26.msky130_fd_pr__pfet_g5v0d10v5#dbody = 2.100000e+00
m.xm26.msky130_fd_pr__pfet_g5v0d10v5#sbody = 2.100000e+00
mir = 8.436542e-01
net1 = 6.313326e-01
net2 = 8.527009e-07
net3 = 7.051862e-01
net4 = 3.299995e-01
net5 = 8.476916e-01
net6 = 8.502433e-01
net7 = 7.051343e-01
net8 = 9.544975e-01
net9 = 9.456834e-01
net10 = 3.547919e-01
net11 = 2.631816e-01
net12 = 2.631816e-01
net13 = 0.000000e+00
out = 2.631816e-01
pos = 1.203092e+00
q.xq2.qsky130_fd_pr__pnp_05v5_w0p68l0p68#collcx = 3.101568e-03
q.xq3.qsky130_fd_pr__pnp_05v5_w0p68l0p68#collcx = 3.916447e-04
q.xq4.qsky130_fd_pr__pnp_05v5_w0p68l0p68#collcx = 3.916447e-04
q.xq8.qsky130_fd_pr__pnp_05v5_w0p68l0p68#collcx = 3.916447e-04
q.xq10.qsky130_fd_pr__pnp_05v5_w0p68l0p68#collcx = 3.916447e-04
q.xq12.qsky130_fd_pr__pnp_05v5_w0p68l0p68#collcx = 3.916447e-04
q.xq14.qsky130_fd_pr__pnp_05v5_w0p68l0p68#collcx = 3.916447e-04
q.xq16.qsky130_fd_pr__pnp_05v5_w0p68l0p68#collcx = 3.916447e-04
q.xq18.qsky130_fd_pr__pnp_05v5_w0p68l0p68#collcx = 3.916447e-04
vb = 8.394077e-01
vdd = 2.100000e+00
vs#branch = -1.00718e-01
vt#branch = 0.000000e+00
xc1.a = 0.000000e+00
xc1.b1 = 0.000000e+00
xc3.a = 2.631816e-01
xc3.b1 = 2.631816e-01
xr1.xsky130_fd_pr__res_xhigh_po_0p69.ra = 7.083098e-01
xr2.xsky130_fd_pr__res_xhigh_po_0p69.ra = 7.083616e-01
xr3.xsky130_fd_pr__res_xhigh_po_0p69.ra = 1.893344e-03
xr4.xsky130_fd_pr__res_xhigh_po_0p69.ra = 6.326323e-01
xr5.xsky130_fd_pr__res_xhigh_po_0p69.ra = 1.893197e-03
xr6.xsky130_fd_pr__res_xhigh_po_0p69.ra = 3.363251e-03
xr7.xsky130_fd_pr__res_xhigh_po_0p69.ra = 2.631816e-01
xr8.xsky130_fd_pr__res_xhigh_po_0p69.ra = 1.208678e+00
xr9.xsky130_fd_pr__res_xhigh_po_0p69.ra = 5.860119e-03
Doing analysis at TEMP = 85.000000 and TNOM = 27.000000


No. of Data Rows : 91
Note: Starting true gmin stepping
Trying gmin =   1.0000E-03 Note: One successful gmin step
Trying gmin =   1.0000E-04 Note: One successful gmin step
Trying gmin =   1.0000E-05 Note: One successful gmin step
Trying gmin =   1.0000E-06 Note: One successful gmin step
Trying gmin =   1.0000E-07 Note: One successful gmin step
Trying gmin =   1.0000E-08 Note: One successful gmin step
Trying gmin =   3.1623E-09 Note: One successful gmin step
Trying gmin =   5.6234E-10 Note: One successful gmin step
Trying gmin =   5.6234E-11 Note: One successful gmin step
Trying gmin =   5.6234E-12 Note: One successful gmin step
Trying gmin =   1.0000E-12 Note: One successful gmin step
Note: True gmin stepping completed
 Reference value :  1.26000e+00Note: Starting true gmin stepping
Trying gmin =   1.0000E-03 Note: One successful gmin step
Trying gmin =   1.0000E-04 Note: One successful gmin step
Trying gmin =   1.0000E-05 Note: One successful gmin step
Trying gmin =   1.0000E-06 Note: One successful gmin step
Trying gmin =   1.0000E-07 Note: One successful gmin step
Trying gmin =   1.0000E-08 Note: One successful gmin step
Trying gmin =   1.0000E-09 Note: One successful gmin step
Trying gmin =   1.0000E-10 Note: One successful gmin step
Trying gmin =   1.0000E-11 Note: One successful gmin step
Trying gmin =   1.0000E-12 Note: One successful gmin step
Trying gmin =   1.0000E-12 Note: One successful gmin step
Note: True gmin stepping completed
pm                  =  9.770198e+01
Doing analysis at TEMP = 85.000000 and TNOM = 27.000000


No. of Data Rows : 91
psrr100             =  -3.965492e+01
psrr100k            =  -1.450004e+01
Doing analysis at TEMP = 85.000000 and TNOM = 27.000000


No. of Data Rows : 86
temp_coeff = 1.591538e+02
Doing analysis at TEMP = 85.000000 and TNOM = 27.000000


No. of Data Rows : 141
vldo_sup_2          =  1.771799e+00
vldo_sup_2_8        =  1.812542e+00
line_reg = 5.092875e-02
Note: No ".plot", ".print", or ".fourier" lines; no simulations run
vin                 =  1.992807e+00
dropout = 2.288070e-01
