 Reference value :  0.00000e+00
No compatibility mode selected!


Circuit: * ldo netlist 

Doing analysis at TEMP = 27.000000 and TNOM = 27.000000


No. of Data Rows : 1
bg_out = 1.098793e+00
inn = 1.145666e+00
inp = 1.145611e+00
l1#branch = 0.000000e+00
ldo_out = 1.805752e+00
m.xm1.msky130_fd_pr__nfet_g5v0d10v5#body = 1.765644e-11
m.xm1.msky130_fd_pr__nfet_g5v0d10v5#dbody = 3.917969e-11
m.xm1.msky130_fd_pr__nfet_g5v0d10v5#sbody = 1.378962e-11
m.xm2.msky130_fd_pr__pfet_g5v0d10v5#body = 2.500000e+00
m.xm2.msky130_fd_pr__pfet_g5v0d10v5#dbody = 2.500000e+00
m.xm2.msky130_fd_pr__pfet_g5v0d10v5#sbody = 2.500000e+00
m.xm3.msky130_fd_pr__pfet_g5v0d10v5#body = 2.500000e+00
m.xm3.msky130_fd_pr__pfet_g5v0d10v5#dbody = 2.500000e+00
m.xm3.msky130_fd_pr__pfet_g5v0d10v5#sbody = 2.500000e+00
m.xm4.msky130_fd_pr__pfet_g5v0d10v5#body = 2.500000e+00
m.xm4.msky130_fd_pr__pfet_g5v0d10v5#dbody = 2.500000e+00
m.xm4.msky130_fd_pr__pfet_g5v0d10v5#sbody = 2.500000e+00
m.xm5.msky130_fd_pr__pfet_g5v0d10v5#body = 2.500000e+00
m.xm5.msky130_fd_pr__pfet_g5v0d10v5#dbody = 2.500000e+00
m.xm5.msky130_fd_pr__pfet_g5v0d10v5#sbody = 2.500000e+00
m.xm6.msky130_fd_pr__nfet_g5v0d10v5#body = 1.221606e-11
m.xm6.msky130_fd_pr__nfet_g5v0d10v5#dbody = 3.054015e-11
m.xm6.msky130_fd_pr__nfet_g5v0d10v5#sbody = 6.108036e-12
m.xm7.msky130_fd_pr__pfet_g5v0d10v5#body = 2.500000e+00
m.xm7.msky130_fd_pr__pfet_g5v0d10v5#dbody = 2.500000e+00
m.xm7.msky130_fd_pr__pfet_g5v0d10v5#sbody = 2.500000e+00
m.xm8.msky130_fd_pr__pfet_g5v0d10v5#body = 2.500000e+00
m.xm8.msky130_fd_pr__pfet_g5v0d10v5#dbody = 2.500000e+00
m.xm8.msky130_fd_pr__pfet_g5v0d10v5#sbody = 2.500000e+00
m.xm9.msky130_fd_pr__nfet_g5v0d10v5#body = 1.835627e-11
m.xm9.msky130_fd_pr__nfet_g5v0d10v5#dbody = 4.207824e-11
m.xm9.msky130_fd_pr__nfet_g5v0d10v5#sbody = 1.299055e-11
m.xm10.msky130_fd_pr__nfet_g5v0d10v5#body = 1.798449e-11
m.xm10.msky130_fd_pr__nfet_g5v0d10v5#dbody = 4.114881e-11
m.xm10.msky130_fd_pr__nfet_g5v0d10v5#sbody = 1.280466e-11
m.xm11.msky130_fd_pr__pfet_g5v0d10v5#body = 2.500000e+00
m.xm11.msky130_fd_pr__pfet_g5v0d10v5#dbody = 2.500000e+00
m.xm11.msky130_fd_pr__pfet_g5v0d10v5#sbody = 2.500000e+00
m.xm12.msky130_fd_pr__pfet_g5v0d10v5#body = 2.500000e+00
m.xm12.msky130_fd_pr__pfet_g5v0d10v5#dbody = 2.500000e+00
m.xm12.msky130_fd_pr__pfet_g5v0d10v5#sbody = 2.500000e+00
m.xm13.msky130_fd_pr__nfet_g5v0d10v5#body = 1.904855e-12
m.xm13.msky130_fd_pr__nfet_g5v0d10v5#dbody = 4.762128e-12
m.xm13.msky130_fd_pr__nfet_g5v0d10v5#sbody = 9.524368e-13
m.xm14.msky130_fd_pr__pfet_g5v0d10v5#body = 2.500000e+00
m.xm14.msky130_fd_pr__pfet_g5v0d10v5#dbody = 2.500000e+00
m.xm14.msky130_fd_pr__pfet_g5v0d10v5#sbody = 2.500000e+00
m.xm15.msky130_fd_pr__nfet_g5v0d10v5#body = 1.335837e-15
m.xm15.msky130_fd_pr__nfet_g5v0d10v5#dbody = 3.339551e-15
m.xm15.msky130_fd_pr__nfet_g5v0d10v5#sbody = 6.679596e-16
m.xm16.msky130_fd_pr__nfet_g5v0d10v5#body = 4.557956e-11
m.xm16.msky130_fd_pr__nfet_g5v0d10v5#dbody = 8.529852e-11
m.xm16.msky130_fd_pr__nfet_g5v0d10v5#sbody = 5.144017e-11
m.xm17.msky130_fd_pr__pfet_g5v0d10v5#body = 2.500000e+00
m.xm17.msky130_fd_pr__pfet_g5v0d10v5#dbody = 2.500000e+00
m.xm17.msky130_fd_pr__pfet_g5v0d10v5#sbody = 2.500000e+00
m.xm18.msky130_fd_pr__nfet_g5v0d10v5#body = 2.054488e-11
m.xm18.msky130_fd_pr__nfet_g5v0d10v5#dbody = 5.117377e-11
m.xm18.msky130_fd_pr__nfet_g5v0d10v5#sbody = 1.027245e-11
m.xm19.msky130_fd_pr__nfet_g5v0d10v5#body = 1.775329e-11
m.xm19.msky130_fd_pr__nfet_g5v0d10v5#dbody = 3.942181e-11
m.xm19.msky130_fd_pr__nfet_g5v0d10v5#sbody = 1.383805e-11
m.xm20.msky130_fd_pr__nfet_g5v0d10v5#body = 1.278792e-11
m.xm20.msky130_fd_pr__nfet_g5v0d10v5#dbody = 3.196979e-11
m.xm20.msky130_fd_pr__nfet_g5v0d10v5#sbody = 6.393973e-12
m.xm22.msky130_fd_pr__nfet_g5v0d10v5#body = 2.483412e-12
m.xm22.msky130_fd_pr__nfet_g5v0d10v5#dbody = 6.208526e-12
m.xm22.msky130_fd_pr__nfet_g5v0d10v5#sbody = 1.241711e-12
m.xm24.msky130_fd_pr__pfet_g5v0d10v5#body = 2.500000e+00
m.xm24.msky130_fd_pr__pfet_g5v0d10v5#dbody = 2.500000e+00
m.xm24.msky130_fd_pr__pfet_g5v0d10v5#sbody = 2.500000e+00
m.xm26.msky130_fd_pr__pfet_g5v0d10v5#body = 2.500000e+00
m.xm26.msky130_fd_pr__pfet_g5v0d10v5#dbody = 2.500000e+00
m.xm26.msky130_fd_pr__pfet_g5v0d10v5#sbody = 2.500000e+00
mir = 1.213710e+00
net1 = 7.305869e-01
net2 = 1.027828e-04
net3 = 7.898340e-01
net4 = 1.981070e-01
net5 = 1.221457e+00
net6 = 9.767185e-01
net7 = 7.897778e-01
net8 = 1.286022e+00
net9 = 1.315763e+00
net10 = 1.522567e-01
net11 = 1.635921e+00
net12 = 1.635921e+00
net13 = 0.000000e+00
out = 1.635921e+00
pos = 1.099054e+00
q.xq2.qsky130_fd_pr__pnp_05v5_w0p68l0p68#collcx = 1.951352e-03
q.xq3.qsky130_fd_pr__pnp_05v5_w0p68l0p68#collcx = 2.472781e-04
q.xq4.qsky130_fd_pr__pnp_05v5_w0p68l0p68#collcx = 2.472781e-04
q.xq8.qsky130_fd_pr__pnp_05v5_w0p68l0p68#collcx = 2.472781e-04
q.xq10.qsky130_fd_pr__pnp_05v5_w0p68l0p68#collcx = 2.472781e-04
q.xq12.qsky130_fd_pr__pnp_05v5_w0p68l0p68#collcx = 2.472781e-04
q.xq14.qsky130_fd_pr__pnp_05v5_w0p68l0p68#collcx = 2.472781e-04
q.xq16.qsky130_fd_pr__pnp_05v5_w0p68l0p68#collcx = 2.472781e-04
q.xq18.qsky130_fd_pr__pnp_05v5_w0p68l0p68#collcx = 2.472781e-04
vb = 1.022901e+00
vdd = 2.500000e+00
vs#branch = -1.71727e-04
vt#branch = 0.000000e+00
xc1.a = 0.000000e+00
xc1.b1 = 0.000000e+00
xc3.a = 1.635921e+00
xc3.b1 = 1.635921e+00
xr1.xsky130_fd_pr__res_xhigh_po_0p69.ra = 7.975519e-01
xr2.xsky130_fd_pr__res_xhigh_po_0p69.ra = 7.976081e-01
xr3.xsky130_fd_pr__res_xhigh_po_0p69.ra = 5.400732e-03
xr4.xsky130_fd_pr__res_xhigh_po_0p69.ra = 7.331101e-01
xr5.xsky130_fd_pr__res_xhigh_po_0p69.ra = 5.400322e-03
xr6.xsky130_fd_pr__res_xhigh_po_0p69.ra = 8.252454e-03
xr7.xsky130_fd_pr__res_xhigh_po_0p69.ra = 1.635921e+00
xr8.xsky130_fd_pr__res_xhigh_po_0p69.ra = 1.111598e+00
xr9.xsky130_fd_pr__res_xhigh_po_0p69.ra = 1.295088e-02
Doing analysis at TEMP = 27.000000 and TNOM = 27.000000


No. of Data Rows : 91
Note: Starting true gmin stepping
Trying gmin =   1.0000E-03 Note: One successful gmin step
Trying gmin =   1.0000E-04 Note: One successful gmin step
Trying gmin =   1.0000E-05 Note: One successful gmin step
Trying gmin =   1.0000E-06 Note: One successful gmin step
Trying gmin =   1.0000E-07 Note: One successful gmin step
Trying gmin =   3.1623E-08 Warning: Further gmin increment
Trying gmin =   7.4989E-08 Note: One successful gmin step
Trying gmin =   4.8697E-08 Warning: Further gmin increment
Trying gmin =   6.7317E-08 Warning: Further gmin increment
Trying gmin =   7.2993E-08 Warning: Further gmin increment
Trying gmin =   7.4485E-08 Note: One successful gmin step
Trying gmin =   7.3735E-08 Note: One successful gmin step
Trying gmin =   7.2625E-08 Warning: Further gmin increment
Trying gmin =   7.3456E-08 Note: One successful gmin step
Trying gmin =   7.3039E-08 Note: One successful gmin step
Trying gmin =   7.2418E-08 Note: One successful gmin step
Trying gmin =   7.1497E-08 Note: One successful gmin step
Trying gmin =   7.0136E-08 Note: One successful gmin step
Trying gmin =   6.8144E-08 Note: One successful gmin step
Trying gmin =   6.5262E-08 Note: One successful gmin step
Trying gmin =   6.1165E-08 Note: One successful gmin step
Trying gmin =   5.5497E-08 Note: One successful gmin step
Trying gmin =   4.7964E-08 Note: One successful gmin step
Trying gmin =   3.8538E-08 Note: One successful gmin step
Trying gmin =   2.7755E-08 Note: One successful gmin step
Trying gmin =   1.6964E-08 Note: One successful gmin step
Trying gmin =   8.1059E-09 Note: One successful gmin step
Trying gmin =   2.6774E-09 Note: One successful gmin step
Trying gmin =   5.0827E-10 Note: One successful gmin step
Trying gmin =   5.0827E-11 Note: One successful gmin step
Trying gmin =   5.0827E-12 Note: One successful gmin step
Trying gmin =   1.0000E-12 Note: One successful gmin step
Note: True gmin stepping completed
 Reference value :  2.80000e+00Note: Starting true gmin stepping
Trying gmin =   1.0000E-03 Note: One successful gmin step
Trying gmin =   1.0000E-04 Note: One successful gmin step
Trying gmin =   1.0000E-05 Note: One successful gmin step
Trying gmin =   1.0000E-06 Note: One successful gmin step
Trying gmin =   1.0000E-07 Note: One successful gmin step
Trying gmin =   1.0000E-08 Note: One successful gmin step
Trying gmin =   1.0000E-09 Warning: Further gmin increment
Trying gmin =   5.6234E-09 Note: One successful gmin step
Trying gmin =   2.3714E-09 Note: One successful gmin step
Trying gmin =   6.4938E-10 Warning: Further gmin increment
Trying gmin =   1.7154E-09 Note: One successful gmin step
Trying gmin =   1.0554E-09 Note: One successful gmin step
Trying gmin =   5.0937E-10 Warning: Further gmin increment
Trying gmin =   8.7970E-10 Note: One successful gmin step
Trying gmin =   6.6940E-10 Warning: Further gmin increment
Trying gmin =   8.2162E-10 Note: One successful gmin step
Trying gmin =   7.4161E-10 Note: One successful gmin step
Trying gmin =   6.3597E-10 Warning: Further gmin increment
Trying gmin =   7.1366E-10 Note: One successful gmin step
Trying gmin =   6.7370E-10 Note: One successful gmin step
Trying gmin =   6.3597E-10 Note: One successful gmin step
Trying gmin =   5.8330E-10 Note: One successful gmin step
Trying gmin =   5.1237E-10 Note: One successful gmin step
Trying gmin =   4.2180E-10 Note: One successful gmin step
Trying gmin =   3.1507E-10 Note: One successful gmin step
Trying gmin =   2.0340E-10 Note: One successful gmin step
Trying gmin =   1.0550E-10 Note: One successful gmin step
Trying gmin =   3.9412E-11 Note: One successful gmin step
Trying gmin =   8.9988E-12 Note: One successful gmin step
Trying gmin =   1.0000E-12 Note: One successful gmin step
Note: True gmin stepping completed
 Reference value :  1.38000e+00Note: Starting true gmin stepping
Trying gmin =   1.0000E-03 Note: One successful gmin step
Trying gmin =   1.0000E-04 Note: One successful gmin step
Trying gmin =   1.0000E-05 Note: One successful gmin step
Trying gmin =   1.0000E-06 Note: One successful gmin step
Trying gmin =   1.0000E-07 Note: One successful gmin step
Trying gmin =   1.0000E-08 Warning: Further gmin increment
Trying gmin =   5.6234E-08 Note: One successful gmin step
Trying gmin =   2.3714E-08 Note: One successful gmin step
Trying gmin =   6.4938E-09 Note: One successful gmin step
Trying gmin =   9.3057E-10 Warning: Further gmin increment
Trying gmin =   3.9954E-09 Note: One successful gmin step
Trying gmin =   1.9282E-09 Note: One successful gmin step
Trying gmin =   6.4647E-10 Note: One successful gmin step
Trying gmin =   1.2550E-10 Warning: Further gmin increment
Trying gmin =   4.2911E-10 Warning: Further gmin increment
Trying gmin =   5.8352E-10 Note: One successful gmin step
Trying gmin =   5.0039E-10 Note: One successful gmin step
Trying gmin =   3.9737E-10 Note: One successful gmin step
Trying gmin =   2.8121E-10 Note: One successful gmin step
Trying gmin =   1.6741E-10 Note: One successful gmin step
Trying gmin =   7.6894E-11 Note: One successful gmin step
Trying gmin =   2.3937E-11 Note: One successful gmin step
Trying gmin =   4.1576E-12 Note: One successful gmin step
Trying gmin =   1.0000E-12 Note: One successful gmin step
Note: True gmin stepping completed
 Reference value :  2.60000e-01pm                  =  6.197756e+01
Doing analysis at TEMP = 27.000000 and TNOM = 27.000000


No. of Data Rows : 91
psrr100             =  -8.286863e+01
psrr100k            =  -2.746730e+01
Doing analysis at TEMP = 27.000000 and TNOM = 27.000000


No. of Data Rows : 86
temp_coeff = 2.850315e+01
Doing analysis at TEMP = 27.000000 and TNOM = 27.000000


No. of Data Rows : 141
vldo_sup_2          =  1.805674e+00
vldo_sup_2_8        =  1.805736e+00
line_reg = 7.750000e-05
Note: No ".plot", ".print", or ".fourier" lines; no simulations run
vin                 =  1.764151e+00
dropout = 1.510000e-04
