 Reference value :  0.00000e+00
No compatibility mode selected!


Circuit: * ldo netlist 

Doing analysis at TEMP = 85.000000 and TNOM = 27.000000


No. of Data Rows : 1
bg_out = 1.102810e+00
inn = 1.064823e+00
inp = 1.064789e+00
l1#branch = 0.000000e+00
ldo_out = 1.813424e+00
m.xm1.msky130_fd_pr__nfet_g5v0d10v5#body = 2.935261e-11
m.xm1.msky130_fd_pr__nfet_g5v0d10v5#dbody = 5.621146e-11
m.xm1.msky130_fd_pr__nfet_g5v0d10v5#sbody = 3.184636e-11
m.xm2.msky130_fd_pr__pfet_g5v0d10v5#body = 2.500000e+00
m.xm2.msky130_fd_pr__pfet_g5v0d10v5#dbody = 2.500000e+00
m.xm2.msky130_fd_pr__pfet_g5v0d10v5#sbody = 2.500000e+00
m.xm3.msky130_fd_pr__pfet_g5v0d10v5#body = 2.500000e+00
m.xm3.msky130_fd_pr__pfet_g5v0d10v5#dbody = 2.500000e+00
m.xm3.msky130_fd_pr__pfet_g5v0d10v5#sbody = 2.500000e+00
m.xm4.msky130_fd_pr__pfet_g5v0d10v5#body = 2.500000e+00
m.xm4.msky130_fd_pr__pfet_g5v0d10v5#dbody = 2.500000e+00
m.xm4.msky130_fd_pr__pfet_g5v0d10v5#sbody = 2.500000e+00
m.xm5.msky130_fd_pr__pfet_g5v0d10v5#body = 2.500000e+00
m.xm5.msky130_fd_pr__pfet_g5v0d10v5#dbody = 2.500000e+00
m.xm5.msky130_fd_pr__pfet_g5v0d10v5#sbody = 2.500000e+00
m.xm6.msky130_fd_pr__nfet_g5v0d10v5#body = 1.919601e-11
m.xm6.msky130_fd_pr__nfet_g5v0d10v5#dbody = 4.798990e-11
m.xm6.msky130_fd_pr__nfet_g5v0d10v5#sbody = 9.598124e-12
m.xm7.msky130_fd_pr__pfet_g5v0d10v5#body = 2.500000e+00
m.xm7.msky130_fd_pr__pfet_g5v0d10v5#dbody = 2.500000e+00
m.xm7.msky130_fd_pr__pfet_g5v0d10v5#sbody = 2.500000e+00
m.xm8.msky130_fd_pr__pfet_g5v0d10v5#body = 2.500000e+00
m.xm8.msky130_fd_pr__pfet_g5v0d10v5#dbody = 2.500000e+00
m.xm8.msky130_fd_pr__pfet_g5v0d10v5#sbody = 2.500000e+00
m.xm9.msky130_fd_pr__nfet_g5v0d10v5#body = 2.753596e-11
m.xm9.msky130_fd_pr__nfet_g5v0d10v5#dbody = 5.461628e-11
m.xm9.msky130_fd_pr__nfet_g5v0d10v5#sbody = 2.799161e-11
m.xm10.msky130_fd_pr__nfet_g5v0d10v5#body = 2.724001e-11
m.xm10.msky130_fd_pr__nfet_g5v0d10v5#dbody = 5.387641e-11
m.xm10.msky130_fd_pr__nfet_g5v0d10v5#sbody = 2.784363e-11
m.xm11.msky130_fd_pr__pfet_g5v0d10v5#body = 2.500000e+00
m.xm11.msky130_fd_pr__pfet_g5v0d10v5#dbody = 2.500000e+00
m.xm11.msky130_fd_pr__pfet_g5v0d10v5#sbody = 2.500000e+00
m.xm12.msky130_fd_pr__pfet_g5v0d10v5#body = 2.500000e+00
m.xm12.msky130_fd_pr__pfet_g5v0d10v5#dbody = 2.500000e+00
m.xm12.msky130_fd_pr__pfet_g5v0d10v5#sbody = 2.500000e+00
m.xm13.msky130_fd_pr__nfet_g5v0d10v5#body = 5.464412e-12
m.xm13.msky130_fd_pr__nfet_g5v0d10v5#dbody = 1.366096e-11
m.xm13.msky130_fd_pr__nfet_g5v0d10v5#sbody = 2.732277e-12
m.xm14.msky130_fd_pr__pfet_g5v0d10v5#body = 2.500000e+00
m.xm14.msky130_fd_pr__pfet_g5v0d10v5#dbody = 2.500000e+00
m.xm14.msky130_fd_pr__pfet_g5v0d10v5#sbody = 2.500000e+00
m.xm15.msky130_fd_pr__nfet_g5v0d10v5#body = 2.529468e-14
m.xm15.msky130_fd_pr__nfet_g5v0d10v5#dbody = 6.323492e-14
m.xm15.msky130_fd_pr__nfet_g5v0d10v5#sbody = 1.264913e-14
m.xm16.msky130_fd_pr__nfet_g5v0d10v5#body = 5.504067e-11
m.xm16.msky130_fd_pr__nfet_g5v0d10v5#dbody = 1.005007e-10
m.xm16.msky130_fd_pr__nfet_g5v0d10v5#sbody = 6.462129e-11
m.xm17.msky130_fd_pr__pfet_g5v0d10v5#body = 2.500000e+00
m.xm17.msky130_fd_pr__pfet_g5v0d10v5#dbody = 2.500000e+00
m.xm17.msky130_fd_pr__pfet_g5v0d10v5#sbody = 2.500000e+00
m.xm18.msky130_fd_pr__nfet_g5v0d10v5#body = 2.390291e-11
m.xm18.msky130_fd_pr__nfet_g5v0d10v5#dbody = 5.907379e-11
m.xm18.msky130_fd_pr__nfet_g5v0d10v5#sbody = 1.195154e-11
m.xm19.msky130_fd_pr__nfet_g5v0d10v5#body = 2.940505e-11
m.xm19.msky130_fd_pr__nfet_g5v0d10v5#dbody = 5.634256e-11
m.xm19.msky130_fd_pr__nfet_g5v0d10v5#sbody = 3.187258e-11
m.xm20.msky130_fd_pr__nfet_g5v0d10v5#body = 1.246854e-11
m.xm20.msky130_fd_pr__nfet_g5v0d10v5#dbody = 3.117127e-11
m.xm20.msky130_fd_pr__nfet_g5v0d10v5#sbody = 6.234349e-12
m.xm22.msky130_fd_pr__nfet_g5v0d10v5#body = 1.187958e-11
m.xm22.msky130_fd_pr__nfet_g5v0d10v5#dbody = 2.969884e-11
m.xm22.msky130_fd_pr__nfet_g5v0d10v5#sbody = 5.939907e-12
m.xm24.msky130_fd_pr__pfet_g5v0d10v5#body = 2.500000e+00
m.xm24.msky130_fd_pr__pfet_g5v0d10v5#dbody = 2.500000e+00
m.xm24.msky130_fd_pr__pfet_g5v0d10v5#sbody = 2.500000e+00
m.xm26.msky130_fd_pr__pfet_g5v0d10v5#body = 2.500000e+00
m.xm26.msky130_fd_pr__pfet_g5v0d10v5#dbody = 2.500000e+00
m.xm26.msky130_fd_pr__pfet_g5v0d10v5#sbody = 2.500000e+00
mir = 1.242191e+00
net1 = 6.313415e-01
net2 = 4.895786e-05
net3 = 7.051983e-01
net4 = 2.677209e-01
net5 = 1.246387e+00
net6 = 8.528173e-01
net7 = 7.051634e-01
net8 = 1.322863e+00
net9 = 1.346539e+00
net10 = 2.816121e-01
net11 = 1.729323e+00
net12 = 1.729323e+00
net13 = 0.000000e+00
out = 1.729323e+00
pos = 1.103059e+00
q.xq2.qsky130_fd_pr__pnp_05v5_w0p68l0p68#collcx = 3.102505e-03
q.xq3.qsky130_fd_pr__pnp_05v5_w0p68l0p68#collcx = 3.917515e-04
q.xq4.qsky130_fd_pr__pnp_05v5_w0p68l0p68#collcx = 3.917515e-04
q.xq8.qsky130_fd_pr__pnp_05v5_w0p68l0p68#collcx = 3.917515e-04
q.xq10.qsky130_fd_pr__pnp_05v5_w0p68l0p68#collcx = 3.917515e-04
q.xq12.qsky130_fd_pr__pnp_05v5_w0p68l0p68#collcx = 3.917515e-04
q.xq14.qsky130_fd_pr__pnp_05v5_w0p68l0p68#collcx = 3.917515e-04
q.xq16.qsky130_fd_pr__pnp_05v5_w0p68l0p68#collcx = 3.917515e-04
q.xq18.qsky130_fd_pr__pnp_05v5_w0p68l0p68#collcx = 3.917515e-04
vb = 8.419093e-01
vdd = 2.500000e+00
vs#branch = -1.97018e-04
vt#branch = 0.000000e+00
xc1.a = 0.000000e+00
xc1.b1 = 0.000000e+00
xc3.a = 1.729323e+00
xc3.b1 = 1.729323e+00
xr1.xsky130_fd_pr__res_xhigh_po_0p69.ra = 7.084137e-01
xr2.xsky130_fd_pr__res_xhigh_po_0p69.ra = 7.084486e-01
xr3.xsky130_fd_pr__res_xhigh_po_0p69.ra = 1.987488e-03
xr4.xsky130_fd_pr__res_xhigh_po_0p69.ra = 6.326416e-01
xr5.xsky130_fd_pr__res_xhigh_po_0p69.ra = 1.987384e-03
xr6.xsky130_fd_pr__res_xhigh_po_0p69.ra = 3.439001e-03
xr7.xsky130_fd_pr__res_xhigh_po_0p69.ra = 1.729323e+00
xr8.xsky130_fd_pr__res_xhigh_po_0p69.ra = 1.108281e+00
xr9.xsky130_fd_pr__res_xhigh_po_0p69.ra = 5.391454e-03
Doing analysis at TEMP = 85.000000 and TNOM = 27.000000


No. of Data Rows : 91
Note: Starting true gmin stepping
Trying gmin =   1.0000E-03 Note: One successful gmin step
Trying gmin =   1.0000E-04 Note: One successful gmin step
Trying gmin =   1.0000E-05 Note: One successful gmin step
Trying gmin =   1.0000E-06 Note: One successful gmin step
Trying gmin =   1.0000E-07 Note: One successful gmin step
Trying gmin =   1.0000E-08 Warning: Further gmin increment
Trying gmin =   5.6234E-08 Note: One successful gmin step
Trying gmin =   2.3714E-08 Warning: Further gmin increment
Trying gmin =   4.5316E-08 Note: One successful gmin step
Trying gmin =   3.2781E-08 Note: One successful gmin step
Trying gmin =   2.0169E-08 Note: One successful gmin step
Trying gmin =   9.7338E-09 Note: One successful gmin step
Trying gmin =   3.2634E-09 Note: One successful gmin step
Trying gmin =   6.3352E-10 Note: One successful gmin step
Trying gmin =   6.3352E-11 Note: One successful gmin step
Trying gmin =   6.3352E-12 Note: One successful gmin step
Trying gmin =   1.0000E-12 Note: One successful gmin step
Note: True gmin stepping completed
 Reference value :  1.42000e+00Note: Starting true gmin stepping
Trying gmin =   1.0000E-03 Note: One successful gmin step
Trying gmin =   1.0000E-04 Note: One successful gmin step
Trying gmin =   1.0000E-05 Note: One successful gmin step
Trying gmin =   1.0000E-06 Note: One successful gmin step
Trying gmin =   1.0000E-07 Note: One successful gmin step
Trying gmin =   1.0000E-08 Warning: Further gmin increment
Trying gmin =   5.6234E-08 Note: One successful gmin step
Trying gmin =   2.3714E-08 Warning: Further gmin increment
Trying gmin =   4.5316E-08 Note: One successful gmin step
Trying gmin =   3.2781E-08 Note: One successful gmin step
Trying gmin =   2.0169E-08 Note: One successful gmin step
Trying gmin =   9.7338E-09 Note: One successful gmin step
Trying gmin =   3.2634E-09 Note: One successful gmin step
Trying gmin =   6.3352E-10 Note: One successful gmin step
Trying gmin =   6.3352E-11 Note: One successful gmin step
Trying gmin =   6.3352E-12 Note: One successful gmin step
Trying gmin =   1.0000E-12 Note: One successful gmin step
Note: True gmin stepping completed
pm                  =  6.146136e+01
Doing analysis at TEMP = 85.000000 and TNOM = 27.000000


No. of Data Rows : 91
psrr100             =  -5.531231e+01
psrr100k            =  -2.744399e+01
Doing analysis at TEMP = 85.000000 and TNOM = 27.000000


No. of Data Rows : 86
temp_coeff = 7.723788e+01
Doing analysis at TEMP = 85.000000 and TNOM = 27.000000


No. of Data Rows : 141
vldo_sup_2          =  1.811927e+00
vldo_sup_2_8        =  1.813847e+00
line_reg = 2.400000e-03
Note: No ".plot", ".print", or ".fourier" lines; no simulations run
vin                 =  1.764178e+00
dropout = 1.780000e-04
