Note: Starting true gmin stepping
Trying gmin =   1.0000E-03 Note: One successful gmin step
Trying gmin =   1.0000E-04 Note: One successful gmin step
Trying gmin =   1.0000E-05 Note: One successful gmin step
Trying gmin =   1.0000E-06 Note: One successful gmin step
Trying gmin =   1.0000E-07 Warning: Further gmin increment
Trying gmin =   5.6234E-07 Note: One successful gmin step
Trying gmin =   2.3714E-07 Note: One successful gmin step
Trying gmin =   6.4938E-08 Note: One successful gmin step
Trying gmin =   3.3982E-08 Note: One successful gmin step
Trying gmin =   1.2864E-08 Note: One successful gmin step
Trying gmin =   2.9961E-09 Note: One successful gmin step
Trying gmin =   3.3678E-10 Note: One successful gmin step
Trying gmin =   3.3678E-11 Note: One successful gmin step
Trying gmin =   3.3678E-12 Note: One successful gmin step
Trying gmin =   1.0000E-12 Note: One successful gmin step
Note: True gmin stepping completed
 Reference value :  0.00000e+00
No compatibility mode selected!


Circuit: * ldo netlist 

Doing analysis at TEMP = 0.000000 and TNOM = 27.000000


No. of Data Rows : 1
bg_out = 6.194723e-01
inn = 8.369350e-01
inp = 8.364246e-01
l1#branch = 0.000000e+00
ldo_out = 9.354953e-01
m.xm1.msky130_fd_pr__nfet_g5v0d10v5#body = 1.200492e-11
m.xm1.msky130_fd_pr__nfet_g5v0d10v5#dbody = 2.912967e-11
m.xm1.msky130_fd_pr__nfet_g5v0d10v5#sbody = 6.885091e-12
m.xm2.msky130_fd_pr__pfet_g5v0d10v5#body = 2.100000e+00
m.xm2.msky130_fd_pr__pfet_g5v0d10v5#dbody = 2.100000e+00
m.xm2.msky130_fd_pr__pfet_g5v0d10v5#sbody = 2.100000e+00
m.xm3.msky130_fd_pr__pfet_g5v0d10v5#body = 2.100000e+00
m.xm3.msky130_fd_pr__pfet_g5v0d10v5#dbody = 2.100000e+00
m.xm3.msky130_fd_pr__pfet_g5v0d10v5#sbody = 2.100000e+00
m.xm4.msky130_fd_pr__pfet_g5v0d10v5#body = 2.100000e+00
m.xm4.msky130_fd_pr__pfet_g5v0d10v5#dbody = 2.100000e+00
m.xm4.msky130_fd_pr__pfet_g5v0d10v5#sbody = 2.100000e+00
m.xm5.msky130_fd_pr__pfet_g5v0d10v5#body = 2.100000e+00
m.xm5.msky130_fd_pr__pfet_g5v0d10v5#dbody = 2.100000e+00
m.xm5.msky130_fd_pr__pfet_g5v0d10v5#sbody = 2.100000e+00
m.xm6.msky130_fd_pr__nfet_g5v0d10v5#body = 1.134487e-11
m.xm6.msky130_fd_pr__nfet_g5v0d10v5#dbody = 2.836217e-11
m.xm6.msky130_fd_pr__nfet_g5v0d10v5#sbody = 5.672438e-12
m.xm7.msky130_fd_pr__pfet_g5v0d10v5#body = 2.100000e+00
m.xm7.msky130_fd_pr__pfet_g5v0d10v5#dbody = 2.100000e+00
m.xm7.msky130_fd_pr__pfet_g5v0d10v5#sbody = 2.100000e+00
m.xm8.msky130_fd_pr__pfet_g5v0d10v5#body = 2.100000e+00
m.xm8.msky130_fd_pr__pfet_g5v0d10v5#dbody = 2.100000e+00
m.xm8.msky130_fd_pr__pfet_g5v0d10v5#sbody = 2.100000e+00
m.xm9.msky130_fd_pr__nfet_g5v0d10v5#body = 1.503697e-11
m.xm9.msky130_fd_pr__nfet_g5v0d10v5#dbody = 3.757012e-11
m.xm9.msky130_fd_pr__nfet_g5v0d10v5#sbody = 7.540775e-12
m.xm10.msky130_fd_pr__nfet_g5v0d10v5#body = 1.224227e-11
m.xm10.msky130_fd_pr__nfet_g5v0d10v5#dbody = 3.058339e-11
m.xm10.msky130_fd_pr__nfet_g5v0d10v5#sbody = 6.143428e-12
m.xm11.msky130_fd_pr__pfet_g5v0d10v5#body = 2.100000e+00
m.xm11.msky130_fd_pr__pfet_g5v0d10v5#dbody = 2.100000e+00
m.xm11.msky130_fd_pr__pfet_g5v0d10v5#sbody = 2.100000e+00
m.xm12.msky130_fd_pr__pfet_g5v0d10v5#body = 2.100000e+00
m.xm12.msky130_fd_pr__pfet_g5v0d10v5#dbody = 2.100000e+00
m.xm12.msky130_fd_pr__pfet_g5v0d10v5#sbody = 2.100000e+00
m.xm13.msky130_fd_pr__nfet_g5v0d10v5#body = 1.114536e-14
m.xm13.msky130_fd_pr__nfet_g5v0d10v5#dbody = 2.786334e-14
m.xm13.msky130_fd_pr__nfet_g5v0d10v5#sbody = 5.572751e-15
m.xm14.msky130_fd_pr__pfet_g5v0d10v5#body = 2.100000e+00
m.xm14.msky130_fd_pr__pfet_g5v0d10v5#dbody = 2.100000e+00
m.xm14.msky130_fd_pr__pfet_g5v0d10v5#sbody = 2.100000e+00
m.xm15.msky130_fd_pr__nfet_g5v0d10v5#body = 1.622503e-11
m.xm15.msky130_fd_pr__nfet_g5v0d10v5#dbody = 4.056252e-11
m.xm15.msky130_fd_pr__nfet_g5v0d10v5#sbody = 8.112514e-12
m.xm16.msky130_fd_pr__nfet_g5v0d10v5#body = 3.671181e-11
m.xm16.msky130_fd_pr__nfet_g5v0d10v5#dbody = 7.085602e-11
m.xm16.msky130_fd_pr__nfet_g5v0d10v5#sbody = 3.927939e-11
m.xm17.msky130_fd_pr__pfet_g5v0d10v5#body = 2.100000e+00
m.xm17.msky130_fd_pr__pfet_g5v0d10v5#dbody = 2.100000e+00
m.xm17.msky130_fd_pr__pfet_g5v0d10v5#sbody = 2.100000e+00
m.xm18.msky130_fd_pr__nfet_g5v0d10v5#body = 1.298746e-11
m.xm18.msky130_fd_pr__nfet_g5v0d10v5#dbody = 3.246865e-11
m.xm18.msky130_fd_pr__nfet_g5v0d10v5#sbody = 6.493737e-12
m.xm19.msky130_fd_pr__nfet_g5v0d10v5#body = 1.275426e-11
m.xm19.msky130_fd_pr__nfet_g5v0d10v5#dbody = 3.100302e-11
m.xm19.msky130_fd_pr__nfet_g5v0d10v5#sbody = 7.259760e-12
m.xm20.msky130_fd_pr__nfet_g5v0d10v5#body = 1.159454e-11
m.xm20.msky130_fd_pr__nfet_g5v0d10v5#dbody = 2.898634e-11
m.xm20.msky130_fd_pr__nfet_g5v0d10v5#sbody = 5.797275e-12
m.xm22.msky130_fd_pr__nfet_g5v0d10v5#body = 4.413426e-13
m.xm22.msky130_fd_pr__nfet_g5v0d10v5#dbody = 1.103355e-12
m.xm22.msky130_fd_pr__nfet_g5v0d10v5#sbody = 2.206723e-13
m.xm24.msky130_fd_pr__pfet_g5v0d10v5#body = 2.100000e+00
m.xm24.msky130_fd_pr__pfet_g5v0d10v5#dbody = 2.100000e+00
m.xm24.msky130_fd_pr__pfet_g5v0d10v5#sbody = 2.100000e+00
m.xm26.msky130_fd_pr__pfet_g5v0d10v5#body = 2.100000e+00
m.xm26.msky130Note: Starting true gmin stepping
Trying gmin =   1.0000E-03 Note: One successful gmin step
Trying gmin =   1.0000E-04 Note: One successful gmin step
Trying gmin =   1.0000E-05 Note: One successful gmin step
Trying gmin =   1.0000E-06 Note: One successful gmin step
Trying gmin =   1.0000E-07 Warning: Further gmin increment
Trying gmin =   5.6234E-07 Note: One successful gmin step
Trying gmin =   2.3714E-07 Note: One successful gmin step
Trying gmin =   6.4938E-08 Note: One successful gmin step
Trying gmin =   3.3982E-08 Note: One successful gmin step
Trying gmin =   1.2864E-08 Note: One successful gmin step
Trying gmin =   2.9961E-09 Note: One successful gmin step
Trying gmin =   3.3678E-10 Note: One successful gmin step
Trying gmin =   3.3678E-11 Note: One successful gmin step
Trying gmin =   3.3678E-12 Note: One successful gmin step
Trying gmin =   1.0000E-12 Note: One successful gmin step
Note: True gmin stepping completed
_fd_pr__pfet_g5v0d10v5#dbody = 2.100000e+00
m.xm26.msky130_fd_pr__pfet_g5v0d10v5#sbody = 2.100000e+00
mir = 9.250838e-01
net1 = 6.114536e-01
net2 = 1.297985e+00
net3 = 6.120555e-01
net4 = 3.530163e-02
net5 = 9.850309e-01
net6 = 9.075820e-01
net7 = 6.115415e-01
net8 = 9.784868e-01
net9 = 1.202062e+00
net10 = 8.915679e-04
net11 = 1.038995e+00
net12 = 1.038995e+00
net13 = 0.000000e+00
out = 1.038995e+00
pos = 6.223255e-01
q.xq2.qsky130_fd_pr__pnp_05v5_w0p68l0p68#collcx = 3.614951e-07
q.xq3.qsky130_fd_pr__pnp_05v5_w0p68l0p68#collcx = 3.526651e-07
q.xq4.qsky130_fd_pr__pnp_05v5_w0p68l0p68#collcx = 3.526651e-07
q.xq8.qsky130_fd_pr__pnp_05v5_w0p68l0p68#collcx = 3.526651e-07
q.xq10.qsky130_fd_pr__pnp_05v5_w0p68l0p68#collcx = 3.526651e-07
q.xq12.qsky130_fd_pr__pnp_05v5_w0p68l0p68#collcx = 3.526651e-07
q.xq14.qsky130_fd_pr__pnp_05v5_w0p68l0p68#collcx = 3.526651e-07
q.xq16.qsky130_fd_pr__pnp_05v5_w0p68l0p68#collcx = 3.526651e-07
q.xq18.qsky130_fd_pr__pnp_05v5_w0p68l0p68#collcx = 3.526651e-07
vb = 9.275613e-01
vdd = 2.100000e+00
vs#branch = -5.24889e-03
vt#branch = 0.000000e+00
xc1.a = 0.000000e+00
xc1.b1 = 0.000000e+00
xc3.a = 1.038995e+00
xc3.b1 = 1.038995e+00
xr1.xsky130_fd_pr__res_xhigh_po_0p69.ra = 6.152226e-01
xr2.xsky130_fd_pr__res_xhigh_po_0p69.ra = 6.157365e-01
xr3.xsky130_fd_pr__res_xhigh_po_0p69.ra = 3.772594e-03
xr4.xsky130_fd_pr__res_xhigh_po_0p69.ra = 6.114572e-01
xr5.xsky130_fd_pr__res_xhigh_po_0p69.ra = 3.769271e-03
xr6.xsky130_fd_pr__res_xhigh_po_0p69.ra = 3.820581e-03
xr7.xsky130_fd_pr__res_xhigh_po_0p69.ra = 1.038995e+00
xr8.xsky130_fd_pr__res_xhigh_po_0p69.ra = 6.288839e-01
xr9.xsky130_fd_pr__res_xhigh_po_0p69.ra = 6.700617e-03
Doing analysis at TEMP = 0.000000 and TNOM = 27.000000


No. of Data Rows : 91
Note: Starting true gmin stepping
Trying gmin =   1.0000E-03 Note: One successful gmin step
Trying gmin =   1.0000E-04 Note: One successful gmin step
Trying gmin =   1.0000E-05 Note: One successful gmin step
Trying gmin =   1.0000E-06 Note: One successful gmin step
Trying gmin =   1.0000E-07 Warning: Further gmin increment
Trying gmin =   5.6234E-07 Note: One successful gmin step
Trying gmin =   2.3714E-07 Note: One successful gmin step
Trying gmin =   6.4938E-08 Note: One successful gmin step
Trying gmin =   3.3982E-08 Note: One successful gmin step
Trying gmin =   1.2864E-08 Note: One successful gmin step
Trying gmin =   2.9961E-09 Note: One successful gmin step
Trying gmin =   3.3678E-10 Note: One successful gmin step
Trying gmin =   3.3678E-11 Note: One successful gmin step
Trying gmin =   3.3678E-12 Note: One successful gmin step
Trying gmin =   1.0000E-12 Note: One successful gmin step
Note: True gmin stepping completed
 Reference value :  6.40000e+01Note: Starting true gmin stepping
Trying gmin =   1.0000E-03 Note: One successful gmin step
Trying gmin =   1.0000E-04 Note: One successful gmin step
Trying gmin =   1.0000E-05 Note: One successful gmin step
Trying gmin =   1.0000E-06 Warning: Further gmin increment
Trying gmin =   5.6234E-06 Note: One successful gmin step
Trying gmin =   2.3714E-06 Warning: Further gmin increment
Trying gmin =   4.5316E-06 Note: One successful gmin step
Trying gmin =   3.2781E-06 Note: One successful gmin step
Trying gmin =   2.0169E-06 Warning: Further gmin increment
Trying gmin =   2.9033E-06 Note: One successful gmin step
Trying gmin =   2.4199E-06 Warning: Further gmin increment
Trying gmin =   2.7741E-06 Note: One successful gmin step
Trying gmin =   2.5909E-06 Note: One successful gmin step
Trying gmin =   2.3386E-06 Note: One successful gmin step
Trying gmin =   2.0055E-06 Note: One successful gmin step
Trying gmin =   1.5926E-06 Note: One successful gmin step
Trying gmin =   1.1270E-06 Note: One successful gmin step
Trying gmin =   6.7093E-07 Note: One successful gmin step
Trying gmin =   3.0818E-07 Note: One successful gmin step
Trying gmin =   1.4155E-07 Note: One successful gmin step
Trying gmin =   4.4065E-08 Warning: Further gmin increment
Trying gmin =   1.0573E-07 Note: One successful gmin step
Trying gmin =   6.8258E-08 Note: One successful gmin step
Trying gmin =   3.5405E-08 Warning: Further gmin increment
Trying gmin =   5.7927E-08 Note: One successful gmin step
Trying gmin =   4.5287E-08 Warning: Further gmin increment
Trying gmin =   5.4470E-08 Note: One successful gmin step
Trying gmin =   4.9667E-08 Note: One successful gmin step
Trying gmin =   4.3244E-08 Warning: Further gmin increment
Trying gmin =   4.7977E-08 Note: One successful gmin step
Trying gmin =   4.5549E-08 Warning: Further gmin increment
Trying gmin =   4.7358E-08 Note: One successful gmin step
Trying gmin =   4.6445E-08 Warning: Further gmin increment
Trying gmin =   4.7128E-08 Note: One successful gmin step
Trying gmin =   4.6785E-08 Note: One successful gmin step
Trying gmin =   4.6275E-08 Warning: Further gmin increment
Trying gmin =   4.6657E-08 Note: One successful gmin step
Trying gmin =   4.6466E-08 Warning: Further gmin increment
Trying gmin =   4.6609E-08 Note: One successful gmin step
Trying gmin =   4.6538E-08 Warning: Further gmin increment
Trying gmin =   4.6591E-08 Note: One successful gmin step
Trying gmin =   4.6564E-08 Note: One successful gmin step
Trying gmin =   4.6524E-08 Warning: Further gmin increment
Trying gmin =   4.6554E-08 Warning: Further gmin increment
Trying gmin =   4.6562E-08 Warning: Further gmin increment
Trying gmin =   4.6564E-08 Note: One successful gmin step
Trying gmin =   4.6563E-08 Warning: Last gmin step failed
Warning: True gmin stepping failed
Note: Starting dynamic gmin stepping
Trying gmin =   1.0000E-03 Note: One successful gmin step
Trying gmin =   1.0000E-04 Note: One successful gmin step
Trying gmin =   1.0000E-05 Warning: Further gmin increment
Trying gmin =   5.6234E-05 Note: One successful gmin step
Trying gmin =   2.3714E-05 Note: One successful gmin step
Trying gmin =   6.4938E-06 Warning: Further gmin increment
Trying gmin =   1.7154E-05 Note: One successful gmin step
Trying gmin =   1.0554E-05 Warning: Further gmin increment
Trying gmin =   1.5193E-05 Note: One successful gmin step
Trying gmin =   1.2663E-05 Note: One successful gmin step
Trying gmin =   9.6358E-06 Warning: Further gmin increment
Trying gmin =   1.1827E-05 Note: One successful gmin step
Trying gmin =   1.0675E-05 Note: One successful gmin step
Trying gmin =   9.1546E-06 Note: One successful gmin step
Trying gmin =   7.2699E-06 Note: One successful gmin step
Trying gmin =   5.1447E-06 Note: One successful gmin step
Trying gmin =   3.0627E-06 Note: One successful gmin step
Trying gmin =   1.4068E-06 Note: One successful gmin step
Trying gmin =   4.3793E-07 Note: One successful gmin step
Trying gmin =   7.6062E-08 Warning: Further gmin increment
Trying gmin =   2.8271E-07 Note: One successful gmin step
Trying gmin =   1.4664E-07 Warning: Further gmin increment
Trying gmin =   2.3992E-07 Note: One successful gmin step
Trying gmin =   1.8757E-07 Warning: Further gmin increment
Trying gmin =   2.2560E-07 Note: One successful gmin step
Trying gmin =   2.0571E-07 Warning: Further gmin increment
Trying gmin =   2.2046E-07 Note: One successful gmin step
Trying gmin =   2.1295E-07 Warning: Further gmin increment
Trying gmin =   2.1856E-07 Note: One successful gmin step
Trying gmin =   2.1574E-07 Note: One successful gmin step
Trying gmin =   2.1158E-07 Warning: Further gmin increment
Trying gmin =   2.1469E-07 Warning: Further gmin increment
Trying gmin =   2.1547E-07 Note: One successful gmin step
Trying gmin =   2.1508E-07 Note: One successful gmin step
Trying gmin =   2.1449E-07 Warning: Further gmin increment
Trying gmin =   2.1493E-07 Warning: Further gmin increment
Trying gmin =   2.1504E-07 Note: One successful gmin step
Trying gmin =   2.1499E-07 Note: One successful gmin step
Trying gmin =   2.1491E-07 Warning: Further gmin increment
Trying gmin =   2.1497E-07 Warning: Further gmin increment
Trying gmin =   2.1498E-07 Warning: Last gmin step failed
Warning: Dynamic gmin stepping failed
Note: Starting source stepping
Supplies reduced to   0.0000% Note: One successful source step
Supplies reduced to   0.1000% Note: One successful source step
Supplies reduced to   0.2000% Note: One successful source step
Supplies reduced to   0.3500% Note: One successful source step
Supplies reduced to   0.5750% Note: One successful source step
Supplies reduced to   0.9125% Note: One successful source step
Supplies reduced to   1.4188% Note: One successful source step
Supplies reduced to   2.1781% Note: One successful source step
Supplies reduced to   3.3172% Note: One successful source step
Supplies reduced to   5.0258% Note: One successful source step
Supplies reduced to   7.5887% Note: One successful source step
Supplies reduced to  11.4330% Note: One successful source step
Supplies reduced to  17.1995% Note: One successful source step
Supplies reduced to  25.8493% Note: One successful source step
Supplies reduced to  38.8239% Supplies reduced to  25.8493% Note: One successful source step
Supplies reduced to  26.4980% Note: One successful source step
Supplies reduced to  27.4711% Note: One successful source step
Supplies reduced to  28.9307% Note: One successful source step
Supplies reduced to  31.1202% Note: One successful source step
Supplies reduced to  34.4044% Note: One successful source step
Supplies reduced to  39.3307% Note: One successful source step
Supplies reduced to  46.7202% Supplies reduced to  39.3307% Note: One successful source step
Supplies reduced to  40.0697% Note: One successful source step
Supplies reduced to  41.1781% Note: One successful source step
Supplies reduced to  42.8407% Note: One successful source step
Supplies reduced to  45.3347% Note: One successful source step
Supplies reduced to  49.0756% Note: One successful source step
Supplies reduced to  54.6869% Note: One successful source step
Supplies reduced to  63.1040% Note: One successful source step
Supplies reduced to  75.7296% Supplies reduced to  63.1040% Note: One successful source step
Supplies reduced to  64.1040% Note: One successful source step
Supplies reduced to  65.6040% Note: One successful source step
Supplies reduced to  67.8540% Note: One successful source step
Supplies reduced to  71.2290% Note: One successful source step
Supplies reduced to  76.2915% Supplies reduced to  71.2290% Note: One successful source step
Supplies reduced to  71.9884% Note: One successful source step
Supplies reduced to  73.1274% Note: One successful source step
Supplies reduced to  74.8360% Note: One successful source step
Supplies reduced to  77.3989% Note: One successful source step
Supplies reduced to  81.2433% Note: One successful source step
Supplies reduced to  83.1654% Note: One successful source step
Supplies reduced to  86.0487% Note: One successful source step
Supplies reduced to  90.3736% Note: One successful source step
Supplies reduced to  96.8609% Note: One successful source step
Supplies reduced to 100.0000% Note: One successful source step
Note: Source stepping completed
 Reference value :  2.80000e+00pm                  =  9.092583e+01
Doing analysis at TEMP = 0.000000 and TNOM = 27.000000


No. of Data Rows : 91
psrr100             =  -1.638552e+01
psrr100k            =  -7.714704e-01
Doing analysis at TEMP = 0.000000 and TNOM = 27.000000


No. of Data Rows : 86
temp_coeff = 8.866998e+01
Doing analysis at TEMP = 0.000000 and TNOM = 27.000000


No. of Data Rows : 141
vldo_sup_2          =  -1.403736e+01
vldo_sup_2_8        =  -1.400740e+01
line_reg = 3.745000e-02
Error(parse.c--checkvalid): vin: zero length vector.
Error: RHS "vin-1.764" invalid
Error(parse.c--checkvalid): dropout: zero length vector.
Error: no such vector dropout
Note: No ".plot", ".print", or ".fourier" lines; no simulations run

Error: measure  vin  (WHEN) : out of interval
 meas dc vin when v(ldo_out)=1.764 failed!

