Note: Starting true gmin stepping
Trying gmin =   1.0000E-03 Note: One successful gmin step
Trying gmin =   1.0000E-04 Note: One successful gmin step
Trying gmin =   1.0000E-05 Note: One successful gmin step
Trying gmin =   1.0000E-06 Note: One successful gmin step
Trying gmin =   1.0000E-07 Warning: Further gmin increment
Trying gmin =   5.6234E-07 Note: One successful gmin step
Trying gmin =   2.3714E-07 Note: One successful gmin step
Trying gmin =   6.4938E-08 Note: One successful gmin step
Trying gmin =   3.3982E-08 Warning: Further gmin increment
Trying gmin =   5.5232E-08 Note: One successful gmin step
Trying gmin =   4.3323E-08 Warning: Further gmin increment
Trying gmin =   5.1978E-08 Note: One successful gmin step
Trying gmin =   4.7454E-08 Warning: Further gmin increment
Trying gmin =   5.0808E-08 Note: One successful gmin step
Trying gmin =   4.9664E-08 Note: One successful gmin step
Trying gmin =   4.7997E-08 Note: One successful gmin step
Trying gmin =   4.5600E-08 Note: One successful gmin step
Trying gmin =   4.2227E-08 Note: One successful gmin step
Trying gmin =   3.7630E-08 Note: One successful gmin step
Trying gmin =   3.1656E-08 Note: One successful gmin step
Trying gmin =   2.4425E-08 Note: One successful gmin step
Trying gmin =   1.6553E-08 Note: One successful gmin step
Trying gmin =   9.2358E-09 Note: One successful gmin step
Trying gmin =   3.8491E-09 Note: One successful gmin step
Trying gmin =   1.0356E-09 Note: One successful gmin step
Trying gmin =   1.4452E-10 Note: One successful gmin step
Trying gmin =   1.4452E-11 Note: One successful gmin step
Trying gmin =   1.4452E-12 Note: One successful gmin step
Trying gmin =   1.0000E-12 Note: One successful gmin step
Note: True gmin stepping completed
 Reference value :  0.00000e+00
No compatibility mode selected!


Circuit: * ldo netlist 

Doing analysis at TEMP = 0.000000 and TNOM = 27.000000


No. of Data Rows : 1
bg_out = 6.080476e-01
inn = 8.222326e-01
inp = 8.218689e-01
l1#branch = 0.000000e+00
ldo_out = 9.185412e-01
m.xm1.msky130_fd_pr__nfet_g5v0d10v5#body = 1.284360e-11
m.xm1.msky130_fd_pr__nfet_g5v0d10v5#dbody = 3.093425e-11
m.xm1.msky130_fd_pr__nfet_g5v0d10v5#sbody = 7.596544e-12
m.xm2.msky130_fd_pr__pfet_g5v0d10v5#body = 2.100000e+00
m.xm2.msky130_fd_pr__pfet_g5v0d10v5#dbody = 2.100000e+00
m.xm2.msky130_fd_pr__pfet_g5v0d10v5#sbody = 2.100000e+00
m.xm3.msky130_fd_pr__pfet_g5v0d10v5#body = 2.100000e+00
m.xm3.msky130_fd_pr__pfet_g5v0d10v5#dbody = 2.100000e+00
m.xm3.msky130_fd_pr__pfet_g5v0d10v5#sbody = 2.100000e+00
m.xm4.msky130_fd_pr__pfet_g5v0d10v5#body = 2.100000e+00
m.xm4.msky130_fd_pr__pfet_g5v0d10v5#dbody = 2.100000e+00
m.xm4.msky130_fd_pr__pfet_g5v0d10v5#sbody = 2.100000e+00
m.xm5.msky130_fd_pr__pfet_g5v0d10v5#body = 2.100000e+00
m.xm5.msky130_fd_pr__pfet_g5v0d10v5#dbody = 2.100000e+00
m.xm5.msky130_fd_pr__pfet_g5v0d10v5#sbody = 2.100000e+00
m.xm6.msky130_fd_pr__nfet_g5v0d10v5#body = 1.095516e-11
m.xm6.msky130_fd_pr__nfet_g5v0d10v5#dbody = 2.738789e-11
m.xm6.msky130_fd_pr__nfet_g5v0d10v5#sbody = 5.477581e-12
m.xm7.msky130_fd_pr__pfet_g5v0d10v5#body = 2.100000e+00
m.xm7.msky130_fd_pr__pfet_g5v0d10v5#dbody = 2.100000e+00
m.xm7.msky130_fd_pr__pfet_g5v0d10v5#sbody = 2.100000e+00
m.xm8.msky130_fd_pr__pfet_g5v0d10v5#body = 2.100000e+00
m.xm8.msky130_fd_pr__pfet_g5v0d10v5#dbody = 2.100000e+00
m.xm8.msky130_fd_pr__pfet_g5v0d10v5#sbody = 2.100000e+00
m.xm9.msky130_fd_pr__nfet_g5v0d10v5#body = 1.544260e-11
m.xm9.msky130_fd_pr__nfet_g5v0d10v5#dbody = 3.856780e-11
m.xm9.msky130_fd_pr__nfet_g5v0d10v5#sbody = 7.759983e-12
m.xm10.msky130_fd_pr__nfet_g5v0d10v5#body = 1.292259e-11
m.xm10.msky130_fd_pr__nfet_g5v0d10v5#dbody = 3.226778e-11
m.xm10.msky130_fd_pr__nfet_g5v0d10v5#sbody = 6.499977e-12
m.xm11.msky130_fd_pr__pfet_g5v0d10v5#body = 2.100000e+00
m.xm11.msky130_fd_pr__pfet_g5v0d10v5#dbody = 2.100000e+00
m.xm11.msky130_fd_pr__pfet_g5v0d10v5#sbody = 2.100000e+00
m.xm12.msky130_fd_pr__pfet_g5v0d10v5#body = 2.100000e+00
m.xm12.msky130_fd_pr__pfet_g5v0d10v5#dbody = 2.100000e+00
m.xm12.msky130_fd_pr__pfet_g5v0d10v5#sbody = 2.100000e+00
m.xm13.msky130_fd_pr__nfet_g5v0d10v5#body = 1.934133e-14
m.xm13.msky130_fd_pr__nfet_g5v0d10v5#dbody = 4.835319e-14
m.xm13.msky130_fd_pr__nfet_g5v0d10v5#sbody = 9.670793e-15
m.xm14.msky130_fd_pr__pfet_g5v0d10v5#body = 2.100000e+00
m.xm14.msky130_fd_pr__pfet_g5v0d10v5#dbody = 2.100000e+00
m.xm14.msky130_fd_pr__pfet_g5v0d10v5#sbody = 2.100000e+00
m.xm15.msky130_fd_pr__nfet_g5v0d10v5#body = 4.357862e-12
m.xm15.msky130_fd_pr__nfet_g5v0d10v5#dbody = 1.089466e-11
m.xm15.msky130_fd_pr__nfet_g5v0d10v5#sbody = 2.178931e-12
m.xm16.msky130_fd_pr__nfet_g5v0d10v5#body = 3.652802e-11
m.xm16.msky130_fd_pr__nfet_g5v0d10v5#dbody = 7.076413e-11
m.xm16.msky130_fd_pr__nfet_g5v0d10v5#sbody = 3.881994e-11
m.xm17.msky130_fd_pr__pfet_g5v0d10v5#body = 2.100000e+00
m.xm17.msky130_fd_pr__pfet_g5v0d10v5#dbody = 2.100000e+00
m.xm17.msky130_fd_pr__pfet_g5v0d10v5#sbody = 2.100000e+00
m.xm18.msky130_fd_pr__nfet_g5v0d10v5#body = 1.720415e-11
m.xm18.msky130_fd_pr__nfet_g5v0d10v5#dbody = 4.300842e-11
m.xm18.msky130_fd_pr__nfet_g5v0d10v5#sbody = 8.602083e-12
m.xm19.msky130_fd_pr__nfet_g5v0d10v5#body = 1.340077e-11
m.xm19.msky130_fd_pr__nfet_g5v0d10v5#dbody = 3.232718e-11
m.xm19.msky130_fd_pr__nfet_g5v0d10v5#sbody = 7.875129e-12
m.xm20.msky130_fd_pr__nfet_g5v0d10v5#body = 1.097544e-11
m.xm20.msky130_fd_pr__nfet_g5v0d10v5#dbody = 2.743859e-11
m.xm20.msky130_fd_pr__nfet_g5v0d10v5#sbody = 5.487726e-12
m.xm22.msky130_fd_pr__nfet_g5v0d10v5#body = 5.874031e-13
m.xm22.msky130_fd_pr__nfet_g5v0d10v5#dbody = 1.468506e-12
m.xm22.msky130_fd_pr__nfet_g5v0d10v5#sbody = 2.937029e-13
m.xm24.msky130_fd_pr__pfet_g5v0d10v5#body = 2.100000e+00
m.xm24.msky130_fd_pr__pfet_g5v0d10v5#dbody = 2.100000e+00
m.xm24.msky130_fd_pr__pfet_g5v0d10v5#sbody = 2.100000e+00
m.xm26.msky130_fd_pr__pfet_g5v0d10v5#body = 2.100000e+00
m.xm26.msky130Note: Starting true gmin stepping
Trying gmin =   1.0000E-03 Note: One successful gmin step
Trying gmin =   1.0000E-04 Note: One successful gmin step
Trying gmin =   1.0000E-05 Note: One successful gmin step
Trying gmin =   1.0000E-06 Note: One successful gmin step
Trying gmin =   1.0000E-07 Warning: Further gmin increment
Trying gmin =   5.6234E-07 Note: One successful gmin step
Trying gmin =   2.3714E-07 Note: One successful gmin step
Trying gmin =   6.4938E-08 Note: One successful gmin step
Trying gmin =   3.3982E-08 Warning: Further gmin increment
Trying gmin =   5.5232E-08 Note: One successful gmin step
Trying gmin =   4.3323E-08 Warning: Further gmin increment
Trying gmin =   5.1978E-08 Note: One successful gmin step
Trying gmin =   4.7454E-08 Warning: Further gmin increment
Trying gmin =   5.0808E-08 Note: One successful gmin step
Trying gmin =   4.9664E-08 Note: One successful gmin step
Trying gmin =   4.7997E-08 Note: One successful gmin step
Trying gmin =   4.5600E-08 Note: One successful gmin step
Trying gmin =   4.2227E-08 Note: One successful gmin step
Trying gmin =   3.7630E-08 Note: One successful gmin step
Trying gmin =   3.1656E-08 Note: One successful gmin step
Trying gmin =   2.4425E-08 Note: One successful gmin step
Trying gmin =   1.6553E-08 Note: One successful gmin step
Trying gmin =   9.2358E-09 Note: One successful gmin step
Trying gmin =   3.8491E-09 Note: One successful gmin step
Trying gmin =   1.0356E-09 Note: One successful gmin step
Trying gmin =   1.4452E-10 Note: One successful gmin step
Trying gmin =   1.4452E-11 Note: One successful gmin step
Trying gmin =   1.4452E-12 Note: One successful gmin step
Trying gmin =   1.0000E-12 Note: One successful gmin step
Note: True gmin stepping completed
_fd_pr__pfet_g5v0d10v5#dbody = 2.100000e+00
m.xm26.msky130_fd_pr__pfet_g5v0d10v5#sbody = 2.100000e+00
mir = 9.804934e-01
net1 = 6.004181e-01
net2 = 3.486139e-01
net3 = 6.008506e-01
net4 = 4.698579e-02
net5 = 1.025067e+00
net6 = 8.764049e-01
net7 = 6.004822e-01
net8 = 1.032256e+00
net9 = 1.233857e+00
net10 = 1.547202e-03
net11 = 1.376252e+00
net12 = 1.376252e+00
net13 = 0.000000e+00
out = 1.376252e+00
pos = 6.105752e-01
q.xq2.qsky130_fd_pr__pnp_05v5_w0p68l0p68#collcx = 2.913300e-07
q.xq3.qsky130_fd_pr__pnp_05v5_w0p68l0p68#collcx = 2.861984e-07
q.xq4.qsky130_fd_pr__pnp_05v5_w0p68l0p68#collcx = 2.861984e-07
q.xq8.qsky130_fd_pr__pnp_05v5_w0p68l0p68#collcx = 2.861984e-07
q.xq10.qsky130_fd_pr__pnp_05v5_w0p68l0p68#collcx = 2.861984e-07
q.xq12.qsky130_fd_pr__pnp_05v5_w0p68l0p68#collcx = 2.861984e-07
q.xq14.qsky130_fd_pr__pnp_05v5_w0p68l0p68#collcx = 2.861984e-07
q.xq16.qsky130_fd_pr__pnp_05v5_w0p68l0p68#collcx = 2.861984e-07
q.xq18.qsky130_fd_pr__pnp_05v5_w0p68l0p68#collcx = 2.861984e-07
vb = 8.780333e-01
vdd = 2.100000e+00
vs#branch = -8.20931e-05
vt#branch = 0.000000e+00
xc1.a = 0.000000e+00
xc1.b1 = 0.000000e+00
xc3.a = 1.376252e+00
xc3.b1 = 1.376252e+00
xr1.xsky130_fd_pr__res_xhigh_po_0p69.ra = 6.018679e-01
xr2.xsky130_fd_pr__res_xhigh_po_0p69.ra = 6.022362e-01
xr3.xsky130_fd_pr__res_xhigh_po_0p69.ra = 1.419026e-03
xr4.xsky130_fd_pr__res_xhigh_po_0p69.ra = 6.004191e-01
xr5.xsky130_fd_pr__res_xhigh_po_0p69.ra = 1.418114e-03
xr6.xsky130_fd_pr__res_xhigh_po_0p69.ra = 1.436850e-03
xr7.xsky130_fd_pr__res_xhigh_po_0p69.ra = 1.376252e+00
xr8.xsky130_fd_pr__res_xhigh_po_0p69.ra = 6.130390e-01
xr9.xsky130_fd_pr__res_xhigh_po_0p69.ra = 2.515581e-03
Doing analysis at TEMP = 0.000000 and TNOM = 27.000000


No. of Data Rows : 91
Note: Starting true gmin stepping
Trying gmin =   1.0000E-03 Note: One successful gmin step
Trying gmin =   1.0000E-04 Note: One successful gmin step
Trying gmin =   1.0000E-05 Note: One successful gmin step
Trying gmin =   1.0000E-06 Note: One successful gmin step
Trying gmin =   1.0000E-07 Warning: Further gmin increment
Trying gmin =   5.6234E-07 Note: One successful gmin step
Trying gmin =   2.3714E-07 Note: One successful gmin step
Trying gmin =   6.4938E-08 Note: One successful gmin step
Trying gmin =   3.3982E-08 Warning: Further gmin increment
Trying gmin =   5.5232E-08 Note: One successful gmin step
Trying gmin =   4.3323E-08 Warning: Further gmin increment
Trying gmin =   5.1978E-08 Note: One successful gmin step
Trying gmin =   4.7454E-08 Warning: Further gmin increment
Trying gmin =   5.0808E-08 Note: One successful gmin step
Trying gmin =   4.9664E-08 Note: One successful gmin step
Trying gmin =   4.7997E-08 Note: One successful gmin step
Trying gmin =   4.5600E-08 Note: One successful gmin step
Trying gmin =   4.2227E-08 Note: One successful gmin step
Trying gmin =   3.7630E-08 Note: One successful gmin step
Trying gmin =   3.1656E-08 Note: One successful gmin step
Trying gmin =   2.4425E-08 Note: One successful gmin step
Trying gmin =   1.6553E-08 Note: One successful gmin step
Trying gmin =   9.2358E-09 Note: One successful gmin step
Trying gmin =   3.8491E-09 Note: One successful gmin step
Trying gmin =   1.0356E-09 Note: One successful gmin step
Trying gmin =   1.4452E-10 Note: One successful gmin step
Trying gmin =   1.4452E-11 Note: One successful gmin step
Trying gmin =   1.4452E-12 Note: One successful gmin step
Trying gmin =   1.0000E-12 Note: One successful gmin step
Note: True gmin stepping completed
 Reference value :  1.00000e+00Note: Starting true gmin stepping
Trying gmin =   1.0000E-03 Note: One successful gmin step
Trying gmin =   1.0000E-04 Note: One successful gmin step
Trying gmin =   1.0000E-05 Note: One successful gmin step
Trying gmin =   1.0000E-06 Note: One successful gmin step
Trying gmin =   1.0000E-07 Note: One successful gmin step
Trying gmin =   1.0000E-08 Warning: Further gmin increment
Trying gmin =   5.6234E-08 Note: One successful gmin step
Trying gmin =   2.3714E-08 Warning: Further gmin increment
Trying gmin =   4.5316E-08 Note: One successful gmin step
Trying gmin =   3.2781E-08 Warning: Further gmin increment
Trying gmin =   4.1792E-08 Note: One successful gmin step
Trying gmin =   3.7013E-08 Warning: Further gmin increment
Trying gmin =   4.0542E-08 Note: One successful gmin step
Trying gmin =   3.8738E-08 Warning: Further gmin increment
Trying gmin =   4.0084E-08 Warning: Further gmin increment
Trying gmin =   4.0427E-08 Note: One successful gmin step
Trying gmin =   4.0255E-08 Warning: Further gmin increment
Trying gmin =   4.0384E-08 Note: One successful gmin step
Trying gmin =   4.0320E-08 Note: One successful gmin step
Trying gmin =   4.0223E-08 Warning: Further gmin increment
Trying gmin =   4.0295E-08 Note: One successful gmin step
Trying gmin =   4.0259E-08 Warning: Further gmin increment
Trying gmin =   4.0286E-08 Warning: Further gmin increment
Trying gmin =   4.0293E-08 Note: One successful gmin step
Trying gmin =   4.0290E-08 Warning: Further gmin increment
Trying gmin =   4.0292E-08 Note: One successful gmin step
Trying gmin =   4.0291E-08 Note: One successful gmin step
Trying gmin =   4.0289E-08 Warning: Last gmin step failed
Warning: True gmin stepping failed
Note: Starting dynamic gmin stepping
Trying gmin =   1.0000E-03 Note: One successful gmin step
Trying gmin =   1.0000E-04 Note: One successful gmin step
Trying gmin =   1.0000E-05 Warning: Further gmin increment
Trying gmin =   5.6234E-05 Note: One successful gmin step
Trying gmin =   2.3714E-05 Note: One successful gmin step
Trying gmin =   6.4938E-06 Warning: Further gmin increment
Trying gmin =   1.7154E-05 Note: One successful gmin step
Trying gmin =   1.0554E-05 Warning: Further gmin increment
Trying gmin =   1.5193E-05 Note: One successful gmin step
Trying gmin =   1.2663E-05 Warning: Further gmin increment
Trying gmin =   1.4517E-05 Note: One successful gmin step
Trying gmin =   1.3558E-05 Warning: Further gmin increment
Trying gmin =   1.4271E-05 Note: One successful gmin step
Trying gmin =   1.3910E-05 Note: One successful gmin step
Trying gmin =   1.3386E-05 Note: One successful gmin step
Trying gmin =   1.2636E-05 Note: One successful gmin step
Trying gmin =   1.1590E-05 Note: One successful gmin step
Trying gmin =   1.0180E-05 Note: One successful gmin step
Trying gmin =   8.3808E-06 Note: One successful gmin step
Trying gmin =   6.2601E-06 Note: One successful gmin step
Trying gmin =   4.0413E-06 Note: One successful gmin step
Trying gmin =   2.6089E-06 Note: One successful gmin step
Trying gmin =   1.3532E-06 Warning: Further gmin increment
Trying gmin =   2.2141E-06 Note: One successful gmin step
Trying gmin =   1.7310E-06 Note: One successful gmin step
Trying gmin =   1.1965E-06 Warning: Further gmin increment
Trying gmin =   1.5783E-06 Warning: Further gmin increment
Trying gmin =   1.6915E-06 Note: One successful gmin step
Trying gmin =   1.6339E-06 Note: One successful gmin step
Trying gmin =   1.5512E-06 Warning: Further gmin increment
Trying gmin =   1.6128E-06 Note: One successful gmin step
Trying gmin =   1.5817E-06 Warning: Further gmin increment
Trying gmin =   1.6050E-06 Warning: Further gmin increment
Trying gmin =   1.6109E-06 Note: One successful gmin step
Trying gmin =   1.6079E-06 Note: One successful gmin step
Trying gmin =   1.6035E-06 Note: One successful gmin step
Trying gmin =   1.5970E-06 Note: One successful gmin step
Trying gmin =   1.5872E-06 Note: One successful gmin step
Trying gmin =   1.5726E-06 Note: One successful gmin step
Trying gmin =   1.5509E-06 Note: One successful gmin step
Trying gmin =   1.5190E-06 Note: One successful gmin step
Trying gmin =   1.4723E-06 Note: One successful gmin step
Trying gmin =   1.4050E-06 Note: One successful gmin step
Trying gmin =   1.3098E-06 Note: One successful gmin step
Trying gmin =   1.1790E-06 Note: One successful gmin step
Trying gmin =   1.0067E-06 Note: One successful gmin step
Trying gmin =   7.9443E-07 Note: One successful gmin step
Trying gmin =   5.5688E-07 Note: One successful gmin step
Trying gmin =   3.2683E-07 Note: One successful gmin step
Trying gmin =   1.4695E-07 Note: One successful gmin step
Trying gmin =   4.4301E-08 Note: One successful gmin step
Trying gmin =   7.3332E-09 Note: One successful gmin step
Trying gmin =   7.3332E-10 Note: One successful gmin step
Trying gmin =   7.3332E-11 Note: One successful gmin step
Trying gmin =   7.3332E-12 Note: One successful gmin step
Trying gmin =   1.0000E-12 Note: One successful gmin step
Note: Dynamic gmin stepping completed
 Reference value :  2.80000e+00Note: Starting true gmin stepping
Trying gmin =   1.0000E-03 Note: One successful gmin step
Trying gmin =   1.0000E-04 Note: One successful gmin step
Trying gmin =   1.0000E-05 Note: One successful gmin step
Trying gmin =   1.0000E-06 Note: One successful gmin step
Trying gmin =   1.0000E-07 Note: One successful gmin step
Trying gmin =   1.0000E-08 Warning: Further gmin increment
Trying gmin =   5.6234E-08 Note: One successful gmin step
Trying gmin =   2.3714E-08 Note: One successful gmin step
Trying gmin =   6.4938E-09 Note: One successful gmin step
Trying gmin =   9.3057E-10 Warning: Further gmin increment
Trying gmin =   3.9954E-09 Warning: Further gmin increment
Trying gmin =   5.7513E-09 Warning: Further gmin increment
Trying gmin =   6.2996E-09 Note: One successful gmin step
Trying gmin =   6.0192E-09 Note: One successful gmin step
Trying gmin =   5.6218E-09 Note: One successful gmin step
Trying gmin =   5.0744E-09 Note: One successful gmin step
Trying gmin =   4.3515E-09 Note: One successful gmin step
Trying gmin =   3.4556E-09 Note: One successful gmin step
Trying gmin =   2.4455E-09 Note: One successful gmin step
Trying gmin =   1.4558E-09 Note: One successful gmin step
Trying gmin =   6.6869E-10 Note: One successful gmin step
Trying gmin =   2.0816E-10 Note: One successful gmin step
Trying gmin =   3.6155E-11 Note: One successful gmin step
Trying gmin =   3.6155E-12 Note: One successful gmin step
Trying gmin =   1.0000E-12 Note: One successful gmin step
Note: True gmin stepping completed
 Reference value :  1.36000e+00Note: Starting true gmin stepping
Trying gmin =   1.0000E-03 Note: One successful gmin step
Trying gmin =   1.0000E-04 Note: One successful gmin step
Trying gmin =   1.0000E-05 Note: One successful gmin step
Trying gmin =   1.0000E-06 Note: One successful gmin step
Trying gmin =   1.0000E-07 Note: One successful gmin step
Trying gmin =   1.0000E-08 Warning: Further gmin increment
Trying gmin =   5.6234E-08 Note: One successful gmin step
Trying gmin =   2.3714E-08 Note: One successful gmin step
Trying gmin =   6.4938E-09 Note: One successful gmin step
Trying gmin =   9.3057E-10 Warning: Further gmin increment
Trying gmin =   3.9954E-09 Note: One successful gmin step
Trying gmin =   1.9282E-09 Note: One successful gmin step
Trying gmin =   6.4647E-10 Note: One successful gmin step
Trying gmin =   1.2550E-10 Note: One successful gmin step
Trying gmin =   1.2550E-11 Note: One successful gmin step
Trying gmin =   1.2550E-12 Note: One successful gmin step
Trying gmin =   1.0000E-12 Note: One successful gmin step
Note: True gmin stepping completed
pm                  =  8.179694e+01
Doing analysis at TEMP = 0.000000 and TNOM = 27.000000


No. of Data Rows : 91
psrr100             =  -3.348953e+01
psrr100k            =  -5.163151e+00
Doing analysis at TEMP = 0.000000 and TNOM = 27.000000


No. of Data Rows : 86
temp_coeff = 1.335596e+02
Doing analysis at TEMP = 0.000000 and TNOM = 27.000000


No. of Data Rows : 141
vldo_sup_2          =  1.790911e+00
vldo_sup_2_8        =  1.789819e+00
line_reg = 1.365000e-03
Note: No ".plot", ".print", or ".fourier" lines; no simulations run
vin                 =  1.764100e+00
dropout = 1.000000e-04
