 Reference value :  0.00000e+00
No compatibility mode selected!


Circuit: * ldo netlist 

Doing analysis at TEMP = 85.000000 and TNOM = 27.000000


No. of Data Rows : 1
bg_out = 1.098240e+00
inn = 1.061142e+00
inp = 1.060989e+00
l1#branch = 0.000000e+00
ldo_out = 1.805711e+00
m.xm1.msky130_fd_pr__nfet_g5v0d10v5#body = 2.572509e-11
m.xm1.msky130_fd_pr__nfet_g5v0d10v5#dbody = 4.947714e-11
m.xm1.msky130_fd_pr__nfet_g5v0d10v5#sbody = 2.769813e-11
m.xm2.msky130_fd_pr__pfet_g5v0d10v5#body = 2.100000e+00
m.xm2.msky130_fd_pr__pfet_g5v0d10v5#dbody = 2.100000e+00
m.xm2.msky130_fd_pr__pfet_g5v0d10v5#sbody = 2.100000e+00
m.xm3.msky130_fd_pr__pfet_g5v0d10v5#body = 2.100000e+00
m.xm3.msky130_fd_pr__pfet_g5v0d10v5#dbody = 2.100000e+00
m.xm3.msky130_fd_pr__pfet_g5v0d10v5#sbody = 2.100000e+00
m.xm4.msky130_fd_pr__pfet_g5v0d10v5#body = 2.100000e+00
m.xm4.msky130_fd_pr__pfet_g5v0d10v5#dbody = 2.100000e+00
m.xm4.msky130_fd_pr__pfet_g5v0d10v5#sbody = 2.100000e+00
m.xm5.msky130_fd_pr__pfet_g5v0d10v5#body = 2.100000e+00
m.xm5.msky130_fd_pr__pfet_g5v0d10v5#dbody = 2.100000e+00
m.xm5.msky130_fd_pr__pfet_g5v0d10v5#sbody = 2.100000e+00
m.xm6.msky130_fd_pr__nfet_g5v0d10v5#body = 2.053374e-11
m.xm6.msky130_fd_pr__nfet_g5v0d10v5#dbody = 5.133424e-11
m.xm6.msky130_fd_pr__nfet_g5v0d10v5#sbody = 1.026699e-11
m.xm7.msky130_fd_pr__pfet_g5v0d10v5#body = 2.100000e+00
m.xm7.msky130_fd_pr__pfet_g5v0d10v5#dbody = 2.100000e+00
m.xm7.msky130_fd_pr__pfet_g5v0d10v5#sbody = 2.100000e+00
m.xm8.msky130_fd_pr__pfet_g5v0d10v5#body = 2.100000e+00
m.xm8.msky130_fd_pr__pfet_g5v0d10v5#dbody = 2.100000e+00
m.xm8.msky130_fd_pr__pfet_g5v0d10v5#sbody = 2.100000e+00
m.xm9.msky130_fd_pr__nfet_g5v0d10v5#body = 2.391817e-11
m.xm9.msky130_fd_pr__nfet_g5v0d10v5#dbody = 4.802253e-11
m.xm9.msky130_fd_pr__nfet_g5v0d10v5#sbody = 2.373197e-11
m.xm10.msky130_fd_pr__nfet_g5v0d10v5#body = 2.353914e-11
m.xm10.msky130_fd_pr__nfet_g5v0d10v5#dbody = 4.707498e-11
m.xm10.msky130_fd_pr__nfet_g5v0d10v5#sbody = 2.354246e-11
m.xm11.msky130_fd_pr__pfet_g5v0d10v5#body = 2.100000e+00
m.xm11.msky130_fd_pr__pfet_g5v0d10v5#dbody = 2.100000e+00
m.xm11.msky130_fd_pr__pfet_g5v0d10v5#sbody = 2.100000e+00
m.xm12.msky130_fd_pr__pfet_g5v0d10v5#body = 2.100000e+00
m.xm12.msky130_fd_pr__pfet_g5v0d10v5#dbody = 2.100000e+00
m.xm12.msky130_fd_pr__pfet_g5v0d10v5#sbody = 2.100000e+00
m.xm13.msky130_fd_pr__nfet_g5v0d10v5#body = 4.246265e-12
m.xm13.msky130_fd_pr__nfet_g5v0d10v5#dbody = 1.061560e-11
m.xm13.msky130_fd_pr__nfet_g5v0d10v5#sbody = 2.123195e-12
m.xm14.msky130_fd_pr__pfet_g5v0d10v5#body = 2.100000e+00
m.xm14.msky130_fd_pr__pfet_g5v0d10v5#dbody = 2.100000e+00
m.xm14.msky130_fd_pr__pfet_g5v0d10v5#sbody = 2.100000e+00
m.xm15.msky130_fd_pr__nfet_g5v0d10v5#body = 2.898846e-14
m.xm15.msky130_fd_pr__nfet_g5v0d10v5#dbody = 7.247035e-14
m.xm15.msky130_fd_pr__nfet_g5v0d10v5#sbody = 1.449504e-14
m.xm16.msky130_fd_pr__nfet_g5v0d10v5#body = 5.014284e-11
m.xm16.msky130_fd_pr__nfet_g5v0d10v5#dbody = 8.819998e-11
m.xm16.msky130_fd_pr__nfet_g5v0d10v5#sbody = 6.222853e-11
m.xm17.msky130_fd_pr__pfet_g5v0d10v5#body = 2.100000e+00
m.xm17.msky130_fd_pr__pfet_g5v0d10v5#dbody = 2.100000e+00
m.xm17.msky130_fd_pr__pfet_g5v0d10v5#sbody = 2.100000e+00
m.xm18.msky130_fd_pr__nfet_g5v0d10v5#body = 2.135767e-11
m.xm18.msky130_fd_pr__nfet_g5v0d10v5#dbody = 5.337103e-11
m.xm18.msky130_fd_pr__nfet_g5v0d10v5#sbody = 1.067892e-11
m.xm19.msky130_fd_pr__nfet_g5v0d10v5#body = 2.593333e-11
m.xm19.msky130_fd_pr__nfet_g5v0d10v5#dbody = 4.999773e-11
m.xm19.msky130_fd_pr__nfet_g5v0d10v5#sbody = 2.780225e-11
m.xm20.msky130_fd_pr__nfet_g5v0d10v5#body = 1.459475e-11
m.xm20.msky130_fd_pr__nfet_g5v0d10v5#dbody = 3.648680e-11
m.xm20.msky130_fd_pr__nfet_g5v0d10v5#sbody = 7.297453e-12
m.xm22.msky130_fd_pr__nfet_g5v0d10v5#body = 1.069404e-11
m.xm22.msky130_fd_pr__nfet_g5v0d10v5#dbody = 2.673500e-11
m.xm22.msky130_fd_pr__nfet_g5v0d10v5#sbody = 5.347123e-12
m.xm24.msky130_fd_pr__pfet_g5v0d10v5#body = 2.100000e+00
m.xm24.msky130_fd_pr__pfet_g5v0d10v5#dbody = 2.100000e+00
m.xm24.msky130_fd_pr__pfet_g5v0d10v5#sbody = 2.100000e+00
m.xm26.msky130_fd_pr__pfet_g5v0d10v5#body = 2.100000e+00
m.xm26.msky130_fd_pr__pfet_g5v0d10v5#dbody = 2.100000e+00
m.xm26.msky130_fd_pr__pfet_g5v0d10v5#sbody = 2.100000e+00
mir = 1.039441e+00
net1 = 6.298445e-01
net2 = 5.587186e-05
net3 = 7.033503e-01
net4 = 1.707764e-01
net5 = 1.056100e+00
net6 = 9.539089e-01
net7 = 7.031943e-01
net8 = 1.118896e+00
net9 = 1.149218e+00
net10 = 1.789427e-01
net11 = 1.546190e+00
net12 = 1.546190e+00
net13 = 0.000000e+00
out = 1.546190e+00
pos = 1.098602e+00
q.xq2.qsky130_fd_pr__pnp_05v5_w0p68l0p68#collcx = 2.957584e-03
q.xq3.qsky130_fd_pr__pnp_05v5_w0p68l0p68#collcx = 3.733517e-04
q.xq4.qsky130_fd_pr__pnp_05v5_w0p68l0p68#collcx = 3.733517e-04
q.xq8.qsky130_fd_pr__pnp_05v5_w0p68l0p68#collcx = 3.733517e-04
q.xq10.qsky130_fd_pr__pnp_05v5_w0p68l0p68#collcx = 3.733517e-04
q.xq12.qsky130_fd_pr__pnp_05v5_w0p68l0p68#collcx = 3.733517e-04
q.xq14.qsky130_fd_pr__pnp_05v5_w0p68l0p68#collcx = 3.733517e-04
q.xq16.qsky130_fd_pr__pnp_05v5_w0p68l0p68#collcx = 3.733517e-04
q.xq18.qsky130_fd_pr__pnp_05v5_w0p68l0p68#collcx = 3.733517e-04
vb = 1.006079e+00
vdd = 2.100000e+00
vs#branch = -1.86427e-04
vt#branch = 0.000000e+00
xc1.a = 0.000000e+00
xc1.b1 = 0.000000e+00
xc3.a = 1.546190e+00
xc3.b1 = 1.546190e+00
xr1.xsky130_fd_pr__res_xhigh_po_0p69.ra = 7.091405e-01
xr2.xsky130_fd_pr__res_xhigh_po_0p69.ra = 7.092964e-01
xr3.xsky130_fd_pr__res_xhigh_po_0p69.ra = 3.640412e-03
xr4.xsky130_fd_pr__res_xhigh_po_0p69.ra = 6.322194e-01
xr5.xsky130_fd_pr__res_xhigh_po_0p69.ra = 3.639558e-03
xr6.xsky130_fd_pr__res_xhigh_po_0p69.ra = 6.288002e-03
xr7.xsky130_fd_pr__res_xhigh_po_0p69.ra = 1.546190e+00
xr8.xsky130_fd_pr__res_xhigh_po_0p69.ra = 1.108155e+00
xr9.xsky130_fd_pr__res_xhigh_po_0p69.ra = 9.862420e-03
Doing analysis at TEMP = 85.000000 and TNOM = 27.000000


No. of Data Rows : 91
Note: Starting true gmin stepping
Trying gmin =   1.0000E-03 Note: One successful gmin step
Trying gmin =   1.0000E-04 Note: One successful gmin step
Trying gmin =   1.0000E-05 Note: One successful gmin step
Trying gmin =   1.0000E-06 Note: One successful gmin step
Trying gmin =   1.0000E-07 Note: One successful gmin step
Trying gmin =   1.0000E-08 Warning: Further gmin increment
Trying gmin =   5.6234E-08 Warning: Further gmin increment
Trying gmin =   8.6596E-08 Note: One successful gmin step
Trying gmin =   6.9783E-08 Warning: Further gmin increment
Trying gmin =   8.2047E-08 Note: One successful gmin step
Trying gmin =   7.5667E-08 Warning: Further gmin increment
Trying gmin =   8.0403E-08 Note: One successful gmin step
Trying gmin =   7.7999E-08 Note: One successful gmin step
Trying gmin =   7.4527E-08 Note: One successful gmin step
Trying gmin =   7.1210E-08 Note: One successful gmin step
Trying gmin =   6.6508E-08 Note: One successful gmin step
Trying gmin =   6.0032E-08 Note: One successful gmin step
Trying gmin =   5.1480E-08 Note: One successful gmin step
Trying gmin =   4.0881E-08 Note: One successful gmin step
Trying gmin =   2.8931E-08 Note: One successful gmin step
Trying gmin =   1.7223E-08 Note: One successful gmin step
Trying gmin =   7.9108E-09 Note: One successful gmin step
Trying gmin =   2.4626E-09 Note: One successful gmin step
Trying gmin =   4.2773E-10 Note: One successful gmin step
Trying gmin =   4.2773E-11 Note: One successful gmin step
Trying gmin =   4.2773E-12 Note: One successful gmin step
Trying gmin =   1.0000E-12 Note: One successful gmin step
Note: True gmin stepping completed
 Reference value :  2.80000e+00Note: Starting true gmin stepping
Trying gmin =   1.0000E-03 Note: One successful gmin step
Trying gmin =   1.0000E-04 Note: One successful gmin step
Trying gmin =   1.0000E-05 Note: One successful gmin step
Trying gmin =   1.0000E-06 Note: One successful gmin step
Trying gmin =   1.0000E-07 Note: One successful gmin step
Trying gmin =   1.0000E-08 Note: One successful gmin step
Trying gmin =   1.0000E-09 Note: One successful gmin step
Trying gmin =   1.0000E-10 Warning: Further gmin increment
Trying gmin =   5.6234E-10 Note: One successful gmin step
Trying gmin =   2.3714E-10 Note: One successful gmin step
Trying gmin =   6.4938E-11 Warning: Further gmin increment
Trying gmin =   1.7154E-10 Warning: Further gmin increment
Trying gmin =   2.1870E-10 Warning: Further gmin increment
Trying gmin =   2.3239E-10 Note: One successful gmin step
Trying gmin =   2.2544E-10 Note: One successful gmin step
Trying gmin =   2.1540E-10 Note: One successful gmin step
Trying gmin =   2.0118E-10 Note: One successful gmin step
Trying gmin =   1.8159E-10 Note: One successful gmin step
Trying gmin =   1.5572E-10 Note: One successful gmin step
Trying gmin =   1.2366E-10 Note: One successful gmin step
Trying gmin =   8.7512E-11 Note: One successful gmin step
Trying gmin =   5.2097E-11 Note: One successful gmin step
Trying gmin =   2.3930E-11 Note: One successful gmin step
Trying gmin =   7.4493E-12 Note: One successful gmin step
Trying gmin =   1.2938E-12 Note: One successful gmin step
Trying gmin =   1.0000E-12 Note: One successful gmin step
Note: True gmin stepping completed
 Reference value :  1.06000e+00Note: Starting true gmin stepping
Trying gmin =   1.0000E-03 Note: One successful gmin step
Trying gmin =   1.0000E-04 Note: One successful gmin step
Trying gmin =   1.0000E-05 Note: One successful gmin step
Trying gmin =   1.0000E-06 Note: One successful gmin step
Trying gmin =   1.0000E-07 Note: One successful gmin step
Trying gmin =   1.0000E-08 Note: One successful gmin step
Trying gmin =   1.0000E-09 Note: One successful gmin step
Trying gmin =   1.0000E-10 Warning: Further gmin increment
Trying gmin =   5.6234E-10 Note: One successful gmin step
Trying gmin =   2.3714E-10 Note: One successful gmin step
Trying gmin =   6.4938E-11 Warning: Further gmin increment
Trying gmin =   1.7154E-10 Note: One successful gmin step
Trying gmin =   1.4590E-10 Note: One successful gmin step
Trying gmin =   1.1444E-10 Note: One successful gmin step
Trying gmin =   7.9504E-11 Note: One successful gmin step
Trying gmin =   4.6035E-11 Note: One successful gmin step
Trying gmin =   2.0283E-11 Note: One successful gmin step
Trying gmin =   5.9319E-12 Note: One successful gmin step
Trying gmin =   1.0000E-12 Note: One successful gmin step
Note: True gmin stepping completed
 Reference value :  3.40000e-01pm                  =  6.890306e+01
Doing analysis at TEMP = 85.000000 and TNOM = 27.000000


No. of Data Rows : 91
psrr100             =  -4.849319e+01
psrr100k            =  -2.493216e+01
Doing analysis at TEMP = 85.000000 and TNOM = 27.000000


No. of Data Rows : 86
temp_coeff = 2.802008e+01
Doing analysis at TEMP = 85.000000 and TNOM = 27.000000


No. of Data Rows : 141
vldo_sup_2          =  1.805469e+00
vldo_sup_2_8        =  1.807444e+00
line_reg = 2.468750e-03
Note: No ".plot", ".print", or ".fourier" lines; no simulations run
vin                 =  1.764113e+00
dropout = 1.130000e-04
