Note: Starting true gmin stepping
Trying gmin =   1.0000E-03 Note: One successful gmin step
Trying gmin =   1.0000E-04 Note: One successful gmin step
Trying gmin =   1.0000E-05 Note: One successful gmin step
Trying gmin =   1.0000E-06 Note: One successful gmin step
Trying gmin =   1.0000E-07 Note: One successful gmin step
Trying gmin =   3.1623E-08 Note: One successful gmin step
Trying gmin =   5.6234E-09 Warning: Further gmin increment
Trying gmin =   2.0535E-08 Note: One successful gmin step
Trying gmin =   1.0746E-08 Warning: Further gmin increment
Trying gmin =   1.7466E-08 Warning: Further gmin increment
Trying gmin =   1.9721E-08 Warning: Further gmin increment
Trying gmin =   2.0329E-08 Note: One successful gmin step
Trying gmin =   2.0022E-08 Note: One successful gmin step
Trying gmin =   1.9572E-08 Note: One successful gmin step
Trying gmin =   1.8914E-08 Note: One successful gmin step
Trying gmin =   1.7970E-08 Note: One successful gmin step
Trying gmin =   1.6641E-08 Note: One successful gmin step
Trying gmin =   1.4829E-08 Note: One successful gmin step
Trying gmin =   1.2475E-08 Note: One successful gmin step
Trying gmin =   9.6252E-09 Note: One successful gmin step
Trying gmin =   6.5233E-09 Note: One successful gmin step
Trying gmin =   3.6396E-09 Note: One successful gmin step
Trying gmin =   1.5168E-09 Note: One successful gmin step
Trying gmin =   4.0810E-10 Note: One successful gmin step
Trying gmin =   5.6951E-11 Note: One successful gmin step
Trying gmin =   5.6951E-12 Note: One successful gmin step
Trying gmin =   1.0000E-12 Note: One successful gmin step
Note: True gmin stepping completed
 Reference value :  0.00000e+00
No compatibility mode selected!


Circuit: * ldo netlist 

Doing analysis at TEMP = 0.000000 and TNOM = 27.000000


No. of Data Rows : 1
bg_out = 1.101810e+00
inn = 1.186230e+00
inp = 1.186138e+00
l1#branch = 0.000000e+00
ldo_out = 1.811422e+00
m.xm1.msky130_fd_pr__nfet_g5v0d10v5#body = 1.210452e-11
m.xm1.msky130_fd_pr__nfet_g5v0d10v5#dbody = 2.526223e-11
m.xm1.msky130_fd_pr__nfet_g5v0d10v5#sbody = 1.105134e-11
m.xm2.msky130_fd_pr__pfet_g5v0d10v5#body = 2.100000e+00
m.xm2.msky130_fd_pr__pfet_g5v0d10v5#dbody = 2.100000e+00
m.xm2.msky130_fd_pr__pfet_g5v0d10v5#sbody = 2.100000e+00
m.xm3.msky130_fd_pr__pfet_g5v0d10v5#body = 2.100000e+00
m.xm3.msky130_fd_pr__pfet_g5v0d10v5#dbody = 2.100000e+00
m.xm3.msky130_fd_pr__pfet_g5v0d10v5#sbody = 2.100000e+00
m.xm4.msky130_fd_pr__pfet_g5v0d10v5#body = 2.100000e+00
m.xm4.msky130_fd_pr__pfet_g5v0d10v5#dbody = 2.100000e+00
m.xm4.msky130_fd_pr__pfet_g5v0d10v5#sbody = 2.100000e+00
m.xm5.msky130_fd_pr__pfet_g5v0d10v5#body = 2.100000e+00
m.xm5.msky130_fd_pr__pfet_g5v0d10v5#dbody = 2.100000e+00
m.xm5.msky130_fd_pr__pfet_g5v0d10v5#sbody = 2.100000e+00
m.xm6.msky130_fd_pr__nfet_g5v0d10v5#body = 1.254987e-11
m.xm6.msky130_fd_pr__nfet_g5v0d10v5#dbody = 3.137467e-11
m.xm6.msky130_fd_pr__nfet_g5v0d10v5#sbody = 6.274940e-12
m.xm7.msky130_fd_pr__pfet_g5v0d10v5#body = 2.100000e+00
m.xm7.msky130_fd_pr__pfet_g5v0d10v5#dbody = 2.100000e+00
m.xm7.msky130_fd_pr__pfet_g5v0d10v5#sbody = 2.100000e+00
m.xm8.msky130_fd_pr__pfet_g5v0d10v5#body = 2.100000e+00
m.xm8.msky130_fd_pr__pfet_g5v0d10v5#dbody = 2.100000e+00
m.xm8.msky130_fd_pr__pfet_g5v0d10v5#sbody = 2.100000e+00
m.xm9.msky130_fd_pr__nfet_g5v0d10v5#body = 1.255806e-11
m.xm9.msky130_fd_pr__nfet_g5v0d10v5#dbody = 2.814483e-11
m.xm9.msky130_fd_pr__nfet_g5v0d10v5#sbody = 9.529351e-12
m.xm10.msky130_fd_pr__nfet_g5v0d10v5#body = 1.237297e-11
m.xm10.msky130_fd_pr__nfet_g5v0d10v5#dbody = 2.768210e-11
m.xm10.msky130_fd_pr__nfet_g5v0d10v5#sbody = 9.436805e-12
m.xm11.msky130_fd_pr__pfet_g5v0d10v5#body = 2.100000e+00
m.xm11.msky130_fd_pr__pfet_g5v0d10v5#dbody = 2.100000e+00
m.xm11.msky130_fd_pr__pfet_g5v0d10v5#sbody = 2.100000e+00
m.xm12.msky130_fd_pr__pfet_g5v0d10v5#body = 2.100000e+00
m.xm12.msky130_fd_pr__pfet_g5v0d10v5#dbody = 2.100000e+00
m.xm12.msky130_fd_pr__pfet_g5v0d10v5#sbody = 2.100000e+00
m.xm13.msky130_fd_pr__nfet_g5v0d10v5#body = 1.625141e-12
m.xm13.msky130_fd_pr__nfet_g5v0d10v5#dbody = 4.062843e-12
m.xm13.msky130_fd_pr__nfet_g5v0d10v5#sbody = 8.125796e-13
m.xm14.msky130_fd_pr__pfet_g5v0d10v5#body = 2.100000e+00
m.xm14.msky130_fd_pr__pfet_g5v0d10v5#dbody = 2.100000e+00
m.xm14.msky130_fd_pr__pfet_g5v0d10v5#sbody = 2.100000e+00
m.xm15.msky130_fd_pr__nfet_g5v0d10v5#body = 2.153955e-17
m.xm15.msky130_fd_pr__nfet_g5v0d10v5#dbody = 5.384822e-17
m.xm15.msky130_fd_pr__nfet_g5v0d10v5#sbody = 1.077041e-17
m.xm16.msky130_fd_pr__nfet_g5v0d10v5#body = 4.107800e-11
m.xm16.msky130_fd_pr__nfet_g5v0d10v5#dbody = 7.303912e-11
m.xm16.msky130_fd_pr__nfet_g5v0d10v5#sbody = 5.019488e-11
m.xm17.msky130_fd_pr__pfet_g5v0d10v5#body = 2.100000e+00
m.xm17.msky130_fd_pr__pfet_g5v0d10v5#dbody = 2.100000e+00
m.xm17.msky130_fd_pr__pfet_g5v0d10v5#sbody = 2.100000e+00
m.xm18.msky130_fd_pr__nfet_g5v0d10v5#body = 4.218549e-12
m.xm18.msky130_fd_pr__nfet_g5v0d10v5#dbody = 1.054636e-11
m.xm18.msky130_fd_pr__nfet_g5v0d10v5#sbody = 2.109286e-12
m.xm19.msky130_fd_pr__nfet_g5v0d10v5#body = 1.222413e-11
m.xm19.msky130_fd_pr__nfet_g5v0d10v5#dbody = 2.556125e-11
m.xm19.msky130_fd_pr__nfet_g5v0d10v5#sbody = 1.111114e-11
m.xm20.msky130_fd_pr__nfet_g5v0d10v5#body = 1.312791e-11
m.xm20.msky130_fd_pr__nfet_g5v0d10v5#dbody = 3.281977e-11
m.xm20.msky130_fd_pr__nfet_g5v0d10v5#sbody = 6.563970e-12
m.xm22.msky130_fd_pr__nfet_g5v0d10v5#body = 2.499574e-12
m.xm22.msky130_fd_pr__nfet_g5v0d10v5#dbody = 6.248931e-12
m.xm22.msky130_fd_pr__nfet_g5v0d10v5#sbody = 1.249792e-12
m.xm24.msky130_fd_pr__pfet_g5v0d10v5#body = 2.100000e+00
m.xm24.msky130_fd_pr__pfet_g5v0d10v5#dbody = 2.100000e+00
m.xm24.msky130_fd_pr__pfet_g5v0d10v5#sbody = 2.100000e+00
m.xm26.msky130_fd_pr__pfet_g5v0d10v5#body = 2.100000e+00
m.xm26.msky130Note: Starting true gmin stepping
Trying gmin =   1.0000E-03 Note: One successful gmin step
Trying gmin =   1.0000E-04 Note: One successful gmin step
Trying gmin =   1.0000E-05 Note: One successful gmin step
Trying gmin =   1.0000E-06 Note: One successful gmin step
Trying gmin =   1.0000E-07 Note: One successful gmin step
Trying gmin =   3.1623E-08 Note: One successful gmin step
Trying gmin =   5.6234E-09 Warning: Further gmin increment
Trying gmin =   2.0535E-08 Note: One successful gmin step
Trying gmin =   1.0746E-08 Warning: Further gmin increment
Trying gmin =   1.7466E-08 Warning: Further gmin increment
Trying gmin =   1.9721E-08 Warning: Further gmin increment
Trying gmin =   2.0329E-08 Note: One successful gmin step
Trying gmin =   2.0022E-08 Note: One successful gmin step
Trying gmin =   1.9572E-08 Note: One successful gmin step
Trying gmin =   1.8914E-08 Note: One successful gmin step
Trying gmin =   1.7970E-08 Note: One successful gmin step
Trying gmin =   1.6641E-08 Note: One successful gmin step
Trying gmin =   1.4829E-08 Note: One successful gmin step
Trying gmin =   1.2475E-08 Note: One successful gmin step
Trying gmin =   9.6252E-09 Note: One successful gmin step
Trying gmin =   6.5233E-09 Note: One successful gmin step
Trying gmin =   3.6396E-09 Note: One successful gmin step
Trying gmin =   1.5168E-09 Note: One successful gmin step
Trying gmin =   4.0810E-10 Note: One successful gmin step
Trying gmin =   5.6951E-11 Note: One successful gmin step
Trying gmin =   5.6951E-12 Note: One successful gmin step
Trying gmin =   1.0000E-12 Note: One successful gmin step
Note: True gmin stepping completed
_fd_pr__pfet_g5v0d10v5#dbody = 2.100000e+00
m.xm26.msky130_fd_pr__pfet_g5v0d10v5#sbody = 2.100000e+00
mir = 7.683942e-01
net1 = 7.756955e-01
net2 = 1.722139e-06
net3 = 8.291858e-01
net4 = 1.999582e-01
net5 = 7.779626e-01
net6 = 1.003982e+00
net7 = 8.290917e-01
net8 = 8.598215e-01
net9 = 8.746289e-01
net10 = 1.300095e-01
net11 = 3.374821e-01
net12 = 3.374821e-01
net13 = 0.000000e+00
out = 3.374821e-01
pos = 1.101961e+00
q.xq2.qsky130_fd_pr__pnp_05v5_w0p68l0p68#collcx = 1.778517e-03
q.xq3.qsky130_fd_pr__pnp_05v5_w0p68l0p68#collcx = 2.253372e-04
q.xq4.qsky130_fd_pr__pnp_05v5_w0p68l0p68#collcx = 2.253372e-04
q.xq8.qsky130_fd_pr__pnp_05v5_w0p68l0p68#collcx = 2.253372e-04
q.xq10.qsky130_fd_pr__pnp_05v5_w0p68l0p68#collcx = 2.253372e-04
q.xq12.qsky130_fd_pr__pnp_05v5_w0p68l0p68#collcx = 2.253372e-04
q.xq14.qsky130_fd_pr__pnp_05v5_w0p68l0p68#collcx = 2.253372e-04
q.xq16.qsky130_fd_pr__pnp_05v5_w0p68l0p68#collcx = 2.253372e-04
q.xq18.qsky130_fd_pr__pnp_05v5_w0p68l0p68#collcx = 2.253372e-04
vb = 1.050231e+00
vdd = 2.100000e+00
vs#branch = -1.00758e-01
vt#branch = 0.000000e+00
xc1.a = 0.000000e+00
xc1.b1 = 0.000000e+00
xc3.a = 3.374821e-01
xc3.b1 = 3.374821e-01
xr1.xsky130_fd_pr__res_xhigh_po_0p69.ra = 8.319561e-01
xr2.xsky130_fd_pr__res_xhigh_po_0p69.ra = 8.320502e-01
xr3.xsky130_fd_pr__res_xhigh_po_0p69.ra = 2.094792e-03
xr4.xsky130_fd_pr__res_xhigh_po_0p69.ra = 7.765312e-01
xr5.xsky130_fd_pr__res_xhigh_po_0p69.ra = 2.094538e-03
xr6.xsky130_fd_pr__res_xhigh_po_0p69.ra = 3.048044e-03
xr7.xsky130_fd_pr__res_xhigh_po_0p69.ra = 3.374821e-01
xr8.xsky130_fd_pr__res_xhigh_po_0p69.ra = 1.106590e+00
xr9.xsky130_fd_pr__res_xhigh_po_0p69.ra = 4.779034e-03
Doing analysis at TEMP = 0.000000 and TNOM = 27.000000


No. of Data Rows : 91
Error: no such vector PM
Note: Starting true gmin stepping
Trying gmin =   1.0000E-03 Note: One successful gmin step
Trying gmin =   1.0000E-04 Note: One successful gmin step
Trying gmin =   1.0000E-05 Note: One successful gmin step
Trying gmin =   1.0000E-06 Note: One successful gmin step
Trying gmin =   1.0000E-07 Note: One successful gmin step
Trying gmin =   3.1623E-08 Note: One successful gmin step
Trying gmin =   5.6234E-09 Warning: Further gmin increment
Trying gmin =   2.0535E-08 Note: One successful gmin step
Trying gmin =   1.0746E-08 Warning: Further gmin increment
Trying gmin =   1.7466E-08 Warning: Further gmin increment
Trying gmin =   1.9721E-08 Warning: Further gmin increment
Trying gmin =   2.0329E-08 Note: One successful gmin step
Trying gmin =   2.0022E-08 Note: One successful gmin step
Trying gmin =   1.9572E-08 Note: One successful gmin step
Trying gmin =   1.8914E-08 Note: One successful gmin step
Trying gmin =   1.7970E-08 Note: One successful gmin step
Trying gmin =   1.6641E-08 Note: One successful gmin step
Trying gmin =   1.4829E-08 Note: One successful gmin step
Trying gmin =   1.2475E-08 Note: One successful gmin step
Trying gmin =   9.6252E-09 Note: One successful gmin step
Trying gmin =   6.5233E-09 Note: One successful gmin step
Trying gmin =   3.6396E-09 Note: One successful gmin step
Trying gmin =   1.5168E-09 Note: One successful gmin step
Trying gmin =   4.0810E-10 Note: One successful gmin step
Trying gmin =   5.6951E-11 Note: One successful gmin step
Trying gmin =   5.6951E-12 Note: One successful gmin step
Trying gmin =   1.0000E-12 Note: One successful gmin step
Note: True gmin stepping completed
 Reference value :  1.00000e+00Note: Starting true gmin stepping
Trying gmin =   1.0000E-03 Note: One successful gmin step
Trying gmin =   1.0000E-04 Note: One successful gmin step
Trying gmin =   1.0000E-05 Note: One successful gmin step
Trying gmin =   1.0000E-06 Warning: Further gmin increment
Trying gmin =   5.6234E-06 Note: One successful gmin step
Trying gmin =   2.3714E-06 Note: One successful gmin step
Trying gmin =   6.4938E-07 Warning: Further gmin increment
Trying gmin =   1.7154E-06 Note: One successful gmin step
Trying gmin =   1.0554E-06 Note: One successful gmin step
Trying gmin =   5.0937E-07 Note: One successful gmin step
Trying gmin =   2.4582E-07 Note: One successful gmin step
Trying gmin =   1.1864E-07 Note: One successful gmin step
Trying gmin =   3.9775E-08 Note: One successful gmin step
Trying gmin =   7.7214E-09 Note: One successful gmin step
Trying gmin =   7.7214E-10 Note: One successful gmin step
Trying gmin =   7.7214E-11 Note: One successful gmin step
Trying gmin =   7.7214E-12 Note: One successful gmin step
Trying gmin =   1.0000E-12 Note: One successful gmin step
Note: True gmin stepping completed
 Reference value :  2.80000e+00Note: Starting true gmin stepping
Trying gmin =   1.0000E-03 Note: One successful gmin step
Trying gmin =   1.0000E-04 Note: One successful gmin step
Trying gmin =   1.0000E-05 Note: One successful gmin step
Trying gmin =   1.0000E-06 Note: One successful gmin step
Trying gmin =   1.0000E-07 Note: One successful gmin step
Trying gmin =   1.0000E-08 Note: One successful gmin step
Trying gmin =   1.0000E-09 Note: One successful gmin step
Trying gmin =   1.0000E-10 Note: One successful gmin step
Trying gmin =   1.0000E-11 Warning: Further gmin increment
Trying gmin =   5.6234E-11 Note: One successful gmin step
Trying gmin =   2.3714E-11 Note: One successful gmin step
Trying gmin =   6.4938E-12 Note: One successful gmin step
Trying gmin =   1.0000E-12 Note: One successful gmin step
Note: True gmin stepping completed
Note: Starting true gmin stepping
Trying gmin =   1.0000E-03 Note: One successful gmin step
Trying gmin =   1.0000E-04 Note: One successful gmin step
Trying gmin =   1.0000E-05 Note: One successful gmin step
Trying gmin =   1.0000E-06 Note: One successful gmin step
Trying gmin =   1.0000E-07 Note: One successful gmin step
Trying gmin =   1.0000E-08 Note: One successful gmin step
Trying gmin =   1.0000E-09 Note: One successful gmin step
Trying gmin =   1.0000E-10 Note: One successful gmin step
Trying gmin =   1.0000E-11 Note: One successful gmin step
Trying gmin =   3.1623E-12 Note: One successful gmin step
Trying gmin =   1.0000E-12 Note: One successful gmin step
Note: True gmin stepping completed
 Reference value :  1.34000e+00
Error: measure  pm  (AT) : out of interval
 meas ac pm find p when vdb(ldo_out)=0 failed!

Doing analysis at TEMP = 0.000000 and TNOM = 27.000000


No. of Data Rows : 91
psrr100             =  -7.928917e+01
psrr100k            =  -1.930746e+01
Doing analysis at TEMP = 0.000000 and TNOM = 27.000000


No. of Data Rows : 86
temp_coeff = 5.862783e+01
Doing analysis at TEMP = 0.000000 and TNOM = 27.000000


No. of Data Rows : 141
vldo_sup_2          =  1.808247e+00
vldo_sup_2_8        =  1.810867e+00
line_reg = 3.275000e-03
Note: No ".plot", ".print", or ".fourier" lines; no simulations run
vin                 =  1.959152e+00
dropout = 1.951520e-01
