Note: Starting true gmin stepping
Trying gmin =   1.0000E-03 Note: One successful gmin step
Trying gmin =   1.0000E-04 Note: One successful gmin step
Trying gmin =   1.0000E-05 Note: One successful gmin step
Trying gmin =   1.0000E-06 Note: One successful gmin step
Trying gmin =   1.0000E-07 Note: One successful gmin step
Trying gmin =   3.1623E-08 Warning: Further gmin increment
Trying gmin =   7.4989E-08 Note: One successful gmin step
Trying gmin =   4.8697E-08 Note: One successful gmin step
Trying gmin =   2.5483E-08 Warning: Further gmin increment
Trying gmin =   4.1418E-08 Note: One successful gmin step
Trying gmin =   3.5227E-08 Note: One successful gmin step
Trying gmin =   2.7632E-08 Note: One successful gmin step
Trying gmin =   1.9196E-08 Note: One successful gmin step
Trying gmin =   1.1115E-08 Note: One successful gmin step
Trying gmin =   4.8971E-09 Note: One successful gmin step
Trying gmin =   1.4322E-09 Note: One successful gmin step
Trying gmin =   2.2652E-10 Note: One successful gmin step
Trying gmin =   2.2652E-11 Note: One successful gmin step
Trying gmin =   2.2652E-12 Note: One successful gmin step
Trying gmin =   1.0000E-12 Note: One successful gmin step
Note: True gmin stepping completed
 Reference value :  0.00000e+00
No compatibility mode selected!


Circuit: * ldo netlist 

Doing analysis at TEMP = 0.000000 and TNOM = 27.000000


No. of Data Rows : 1
bg_out = 5.147613e-01
inn = 7.125516e-01
inp = 7.114680e-01
l1#branch = 1.387779e-17
ldo_out = 8.518321e-01
m.xm1.msky130_fd_pr__nfet_g5v0d10v5#body = 1.057870e-11
m.xm1.msky130_fd_pr__nfet_g5v0d10v5#dbody = 2.607865e-11
m.xm1.msky130_fd_pr__nfet_g5v0d10v5#sbody = 5.657458e-12
m.xm2.msky130_fd_pr__pfet_g5v0d10v5#body = 2.100000e+00
m.xm2.msky130_fd_pr__pfet_g5v0d10v5#dbody = 2.100000e+00
m.xm2.msky130_fd_pr__pfet_g5v0d10v5#sbody = 2.100000e+00
m.xm3.msky130_fd_pr__pfet_g5v0d10v5#body = 2.100000e+00
m.xm3.msky130_fd_pr__pfet_g5v0d10v5#dbody = 2.100000e+00
m.xm3.msky130_fd_pr__pfet_g5v0d10v5#sbody = 2.100000e+00
m.xm4.msky130_fd_pr__pfet_g5v0d10v5#body = 2.100000e+00
m.xm4.msky130_fd_pr__pfet_g5v0d10v5#dbody = 2.100000e+00
m.xm4.msky130_fd_pr__pfet_g5v0d10v5#sbody = 2.100000e+00
m.xm5.msky130_fd_pr__pfet_g5v0d10v5#body = 2.100000e+00
m.xm5.msky130_fd_pr__pfet_g5v0d10v5#dbody = 2.100000e+00
m.xm5.msky130_fd_pr__pfet_g5v0d10v5#sbody = 2.100000e+00
m.xm6.msky130_fd_pr__nfet_g5v0d10v5#body = 1.073703e-11
m.xm6.msky130_fd_pr__nfet_g5v0d10v5#dbody = 2.684258e-11
m.xm6.msky130_fd_pr__nfet_g5v0d10v5#sbody = 5.368519e-12
m.xm7.msky130_fd_pr__pfet_g5v0d10v5#body = 2.100000e+00
m.xm7.msky130_fd_pr__pfet_g5v0d10v5#dbody = 2.100000e+00
m.xm7.msky130_fd_pr__pfet_g5v0d10v5#sbody = 2.100000e+00
m.xm8.msky130_fd_pr__pfet_g5v0d10v5#body = 2.100000e+00
m.xm8.msky130_fd_pr__pfet_g5v0d10v5#dbody = 2.100000e+00
m.xm8.msky130_fd_pr__pfet_g5v0d10v5#sbody = 2.100000e+00
m.xm9.msky130_fd_pr__nfet_g5v0d10v5#body = 1.435890e-11
m.xm9.msky130_fd_pr__nfet_g5v0d10v5#dbody = 3.588649e-11
m.xm9.msky130_fd_pr__nfet_g5v0d10v5#sbody = 7.190220e-12
m.xm10.msky130_fd_pr__nfet_g5v0d10v5#body = 1.104795e-11
m.xm10.msky130_fd_pr__nfet_g5v0d10v5#dbody = 2.760910e-11
m.xm10.msky130_fd_pr__nfet_g5v0d10v5#sbody = 5.534742e-12
m.xm11.msky130_fd_pr__pfet_g5v0d10v5#body = 2.100000e+00
m.xm11.msky130_fd_pr__pfet_g5v0d10v5#dbody = 2.100000e+00
m.xm11.msky130_fd_pr__pfet_g5v0d10v5#sbody = 2.100000e+00
m.xm12.msky130_fd_pr__pfet_g5v0d10v5#body = 2.100000e+00
m.xm12.msky130_fd_pr__pfet_g5v0d10v5#dbody = 2.100000e+00
m.xm12.msky130_fd_pr__pfet_g5v0d10v5#sbody = 2.100000e+00
m.xm13.msky130_fd_pr__nfet_g5v0d10v5#body = 5.383712e-15
m.xm13.msky130_fd_pr__nfet_g5v0d10v5#dbody = 1.345925e-14
m.xm13.msky130_fd_pr__nfet_g5v0d10v5#sbody = 2.691889e-15
m.xm14.msky130_fd_pr__pfet_g5v0d10v5#body = 2.100000e+00
m.xm14.msky130_fd_pr__pfet_g5v0d10v5#dbody = 2.100000e+00
m.xm14.msky130_fd_pr__pfet_g5v0d10v5#sbody = 2.100000e+00
m.xm15.msky130_fd_pr__nfet_g5v0d10v5#body = 1.512986e-11
m.xm15.msky130_fd_pr__nfet_g5v0d10v5#dbody = 3.782465e-11
m.xm15.msky130_fd_pr__nfet_g5v0d10v5#sbody = 7.564931e-12
m.xm16.msky130_fd_pr__nfet_g5v0d10v5#body = 3.515702e-11
m.xm16.msky130_fd_pr__nfet_g5v0d10v5#dbody = 7.007863e-11
m.xm16.msky130_fd_pr__nfet_g5v0d10v5#sbody = 3.539242e-11
m.xm17.msky130_fd_pr__pfet_g5v0d10v5#body = 2.100000e+00
m.xm17.msky130_fd_pr__pfet_g5v0d10v5#dbody = 2.100000e+00
m.xm17.msky130_fd_pr__pfet_g5v0d10v5#sbody = 2.100000e+00
m.xm18.msky130_fd_pr__nfet_g5v0d10v5#body = 1.483391e-11
m.xm18.msky130_fd_pr__nfet_g5v0d10v5#dbody = 3.708476e-11
m.xm18.msky130_fd_pr__nfet_g5v0d10v5#sbody = 7.416962e-12
m.xm19.msky130_fd_pr__nfet_g5v0d10v5#body = 1.197834e-11
m.xm19.msky130_fd_pr__nfet_g5v0d10v5#dbody = 2.957774e-11
m.xm19.msky130_fd_pr__nfet_g5v0d10v5#sbody = 6.357276e-12
m.xm20.msky130_fd_pr__nfet_g5v0d10v5#body = 1.068663e-11
m.xm20.msky130_fd_pr__nfet_g5v0d10v5#dbody = 2.671656e-11
m.xm20.msky130_fd_pr__nfet_g5v0d10v5#sbody = 5.343320e-12
m.xm22.msky130_fd_pr__nfet_g5v0d10v5#body = 1.840697e-13
m.xm22.msky130_fd_pr__nfet_g5v0d10v5#dbody = 4.601737e-13
m.xm22.msky130_fd_pr__nfet_g5v0d10v5#sbody = 9.203535e-14
m.xm24.msky130_fd_pr__pfet_g5v0d10v5#body = 2.100000e+00
m.xm24.msky130_fd_pr__pfet_g5v0d10v5#dbody = 2.100000e+00
m.xm24.msky130_fd_pr__pfet_g5v0d10v5#sbody = 2.100000e+00
m.xm26.msky130_fd_pr__pfet_g5v0d10v5#body = 2.100000e+00
m.xm26.msky130Note: Starting true gmin stepping
Trying gmin =   1.0000E-03 Note: One successful gmin step
Trying gmin =   1.0000E-04 Note: One successful gmin step
Trying gmin =   1.0000E-05 Note: One successful gmin step
Trying gmin =   1.0000E-06 Note: One successful gmin step
Trying gmin =   1.0000E-07 Note: One successful gmin step
Trying gmin =   3.1623E-08 Warning: Further gmin increment
Trying gmin =   7.4989E-08 Note: One successful gmin step
Trying gmin =   4.8697E-08 Note: One successful gmin step
Trying gmin =   2.5483E-08 Warning: Further gmin increment
Trying gmin =   4.1418E-08 Note: One successful gmin step
Trying gmin =   3.5227E-08 Note: One successful gmin step
Trying gmin =   2.7632E-08 Note: One successful gmin step
Trying gmin =   1.9196E-08 Note: One successful gmin step
Trying gmin =   1.1115E-08 Note: One successful gmin step
Trying gmin =   4.8971E-09 Note: One successful gmin step
Trying gmin =   1.4322E-09 Note: One successful gmin step
Trying gmin =   2.2652E-10 Note: One successful gmin step
Trying gmin =   2.2652E-11 Note: One successful gmin step
Trying gmin =   2.2652E-12 Note: One successful gmin step
Trying gmin =   1.0000E-12 Note: One successful gmin step
Note: True gmin stepping completed
_fd_pr__pfet_g5v0d10v5#dbody = 2.100000e+00
m.xm26.msky130_fd_pr__pfet_g5v0d10v5#sbody = 2.100000e+00
mir = 8.315672e-01
net1 = 5.456930e-01
net2 = 1.210374e+00
net3 = 5.465379e-01
net4 = 1.472221e-02
net5 = 9.435380e-01
net6 = 8.589549e-01
net7 = 5.456990e-01
net8 = 8.834019e-01
net9 = 1.148278e+00
net10 = 4.306676e-04
net11 = 1.186711e+00
net12 = 1.186711e+00
net13 = 0.000000e+00
out = 1.186711e+00
pos = 5.182416e-01
q.xq2.qsky130_fd_pr__pnp_05v5_w0p68l0p68#collcx = 2.448210e-08
q.xq3.qsky130_fd_pr__pnp_05v5_w0p68l0p68#collcx = 2.364660e-08
q.xq4.qsky130_fd_pr__pnp_05v5_w0p68l0p68#collcx = 2.364660e-08
q.xq8.qsky130_fd_pr__pnp_05v5_w0p68l0p68#collcx = 2.364660e-08
q.xq10.qsky130_fd_pr__pnp_05v5_w0p68l0p68#collcx = 2.364660e-08
q.xq12.qsky130_fd_pr__pnp_05v5_w0p68l0p68#collcx = 2.364660e-08
q.xq14.qsky130_fd_pr__pnp_05v5_w0p68l0p68#collcx = 2.364660e-08
q.xq16.qsky130_fd_pr__pnp_05v5_w0p68l0p68#collcx = 2.364660e-08
q.xq18.qsky130_fd_pr__pnp_05v5_w0p68l0p68#collcx = 2.364660e-08
vb = 8.549284e-01
vdd = 2.100000e+00
vs#branch = -7.35628e-05
vt#branch = 0.000000e+00
xc1.a = 0.000000e+00
xc1.b1 = 0.000000e+00
xc3.a = 1.186711e+00
xc3.b1 = 1.186711e+00
xr1.xsky130_fd_pr__res_xhigh_po_0p69.ra = 5.470175e-01
xr2.xsky130_fd_pr__res_xhigh_po_0p69.ra = 5.478585e-01
xr3.xsky130_fd_pr__res_xhigh_po_0p69.ra = 1.349164e-03
xr4.xsky130_fd_pr__res_xhigh_po_0p69.ra = 5.456931e-01
xr5.xsky130_fd_pr__res_xhigh_po_0p69.ra = 1.347005e-03
xr6.xsky130_fd_pr__res_xhigh_po_0p69.ra = 1.357656e-03
xr7.xsky130_fd_pr__res_xhigh_po_0p69.ra = 1.186711e+00
xr8.xsky130_fd_pr__res_xhigh_po_0p69.ra = 5.203590e-01
xr9.xsky130_fd_pr__res_xhigh_po_0p69.ra = 2.143463e-03
Doing analysis at TEMP = 0.000000 and TNOM = 27.000000


No. of Data Rows : 91
Note: Starting true gmin stepping
Trying gmin =   1.0000E-03 Note: One successful gmin step
Trying gmin =   1.0000E-04 Note: One successful gmin step
Trying gmin =   1.0000E-05 Note: One successful gmin step
Trying gmin =   1.0000E-06 Note: One successful gmin step
Trying gmin =   1.0000E-07 Note: One successful gmin step
Trying gmin =   3.1623E-08 Warning: Further gmin increment
Trying gmin =   7.4989E-08 Note: One successful gmin step
Trying gmin =   4.8697E-08 Note: One successful gmin step
Trying gmin =   2.5483E-08 Warning: Further gmin increment
Trying gmin =   4.1418E-08 Note: One successful gmin step
Trying gmin =   3.5227E-08 Note: One successful gmin step
Trying gmin =   2.7632E-08 Note: One successful gmin step
Trying gmin =   1.9196E-08 Note: One successful gmin step
Trying gmin =   1.1115E-08 Note: One successful gmin step
Trying gmin =   4.8971E-09 Note: One successful gmin step
Trying gmin =   1.4322E-09 Note: One successful gmin step
Trying gmin =   2.2652E-10 Note: One successful gmin step
Trying gmin =   2.2652E-11 Note: One successful gmin step
Trying gmin =   2.2652E-12 Note: One successful gmin step
Trying gmin =   1.0000E-12 Note: One successful gmin step
Note: True gmin stepping completed
 Reference value :  1.00000e+00Note: Starting true gmin stepping
Trying gmin =   1.0000E-03 Note: One successful gmin step
Trying gmin =   1.0000E-04 Note: One successful gmin step
Trying gmin =   1.0000E-05 Note: One successful gmin step
Trying gmin =   1.0000E-06 Note: One successful gmin step
Trying gmin =   1.0000E-07 Note: One successful gmin step
Trying gmin =   1.0000E-08 Warning: Further gmin increment
Trying gmin =   5.6234E-08 Note: One successful gmin step
Trying gmin =   2.3714E-08 Warning: Further gmin increment
Trying gmin =   4.5316E-08 Warning: Further gmin increment
Trying gmin =   5.3280E-08 Note: One successful gmin step
Trying gmin =   4.9137E-08 Note: One successful gmin step
Trying gmin =   4.3518E-08 Warning: Further gmin increment
Trying gmin =   4.7668E-08 Note: One successful gmin step
Trying gmin =   4.5546E-08 Warning: Further gmin increment
Trying gmin =   4.7128E-08 Note: One successful gmin step
Trying gmin =   4.6860E-08 Note: One successful gmin step
Trying gmin =   4.6462E-08 Note: One successful gmin step
Trying gmin =   4.5871E-08 Note: One successful gmin step
Trying gmin =   4.4998E-08 Note: One successful gmin step
Trying gmin =   4.3720E-08 Note: One successful gmin step
Trying gmin =   4.1871E-08 Note: One successful gmin step
Trying gmin =   3.9242E-08 Note: One successful gmin step
Trying gmin =   3.5606E-08 Note: One successful gmin step
Trying gmin =   3.0773E-08 Note: One successful gmin step
Trying gmin =   2.4725E-08 Warning: Further gmin increment
Trying gmin =   2.9134E-08 Note: One successful gmin step
Trying gmin =   2.6839E-08 Warning: Further gmin increment
Trying gmin =   2.8543E-08 Note: One successful gmin step
Trying gmin =   2.7678E-08 Note: One successful gmin step
Trying gmin =   2.6839E-08 Note: One successful gmin step
Trying gmin =   2.5629E-08 Note: One successful gmin step
Trying gmin =   2.3914E-08 Note: One successful gmin step
Trying gmin =   2.1555E-08 Note: One successful gmin step
Trying gmin =   1.8446E-08 Note: One successful gmin step
Trying gmin =   1.4602E-08 Warning: Further gmin increment
Trying gmin =   1.7399E-08 Warning: Further gmin increment
Trying gmin =   1.8179E-08 Note: One successful gmin step
Trying gmin =   1.7785E-08 Note: One successful gmin step
Trying gmin =   1.7210E-08 Warning: Further gmin increment
Trying gmin =   1.7639E-08 Note: One successful gmin step
Trying gmin =   1.7423E-08 Warning: Further gmin increment
Trying gmin =   1.7585E-08 Note: One successful gmin step
Trying gmin =   1.7504E-08 Warning: Further gmin increment
Trying gmin =   1.7565E-08 Note: One successful gmin step
Trying gmin =   1.7534E-08 Warning: Further gmin increment
Trying gmin =   1.7557E-08 Note: One successful gmin step
Trying gmin =   1.7546E-08 Warning: Further gmin increment
Trying gmin =   1.7554E-08 Note: One successful gmin step
Trying gmin =   1.7550E-08 Warning: Further gmin increment
Trying gmin =   1.7553E-08 Note: One successful gmin step
Trying gmin =   1.7552E-08 Warning: Further gmin increment
Trying gmin =   1.7553E-08 Warning: Last gmin step failed
Warning: True gmin stepping failed
Note: Starting dynamic gmin stepping
Trying gmin =   1.0000E-03 Note: One successful gmin step
Trying gmin =   1.0000E-04 Note: One successful gmin step
Trying gmin =   1.0000E-05 Note: One successful gmin step
Trying gmin =   1.0000E-06 Warning: Further gmin increment
Trying gmin =   5.6234E-06 Note: One successful gmin step
Trying gmin =   4.2170E-06 Note: One successful gmin step
Trying gmin =   2.7384E-06 Note: One successful gmin step
Trying gmin =   1.4330E-06 Note: One successful gmin step
Trying gmin =   5.4247E-07 Note: One successful gmin step
Trying gmin =   1.2635E-07 Warning: Further gmin increment
Trying gmin =   3.7685E-07 Note: One successful gmin step
Trying gmin =   2.1821E-07 Warning: Further gmin increment
Trying gmin =   3.2873E-07 Note: One successful gmin step
Trying gmin =   2.6783E-07 Note: One successful gmin step
Trying gmin =   1.9696E-07 Warning: Further gmin increment
Trying gmin =   2.4802E-07 Note: One successful gmin step
Trying gmin =   2.2102E-07 Note: One successful gmin step
Trying gmin =   1.8593E-07 Warning: Further gmin increment
Trying gmin =   2.1167E-07 Warning: Further gmin increment
Trying gmin =   2.1864E-07 Warning: Further gmin increment
Trying gmin =   2.2042E-07 Warning: Further gmin increment
Trying gmin =   2.2087E-07 Warning: Further gmin increment
Trying gmin =   2.2098E-07 Warning: Further gmin increment
Trying gmin =   2.2101E-07 Warning: Last gmin step failed
Warning: Dynamic gmin stepping failed
Note: Starting source stepping
Supplies reduced to   0.0000% Note: One successful source step
Supplies reduced to   0.1000% Note: One successful source step
Supplies reduced to   0.2000% Note: One successful source step
Supplies reduced to   0.3500% Note: One successful source step
Supplies reduced to   0.5750% Note: One successful source step
Supplies reduced to   0.9125% Note: One successful source step
Supplies reduced to   1.4188% Note: One successful source step
Supplies reduced to   2.1781% Note: One successful source step
Supplies reduced to   3.3172% Note: One successful source step
Supplies reduced to   5.0258% Note: One successful source step
Supplies reduced to   7.5887% Note: One successful source step
Supplies reduced to  11.4330% Note: One successful source step
Supplies reduced to  17.1995% Note: One successful source step
Supplies reduced to  25.8493% Note: One successful source step
Supplies reduced to  38.8239% Supplies reduced to  25.8493% Note: One successful source step
Supplies reduced to  26.8493% Note: One successful source step
Supplies reduced to  28.3493% Note: One successful source step
Supplies reduced to  30.5993% Note: One successful source step
Supplies reduced to  33.9743% Supplies reduced to  30.5993% Note: One successful source step
Supplies reduced to  31.1055% Note: One successful source step
Supplies reduced to  31.8649% Note: One successful source step
Supplies reduced to  33.0040% Note: One successful source step
Supplies reduced to  34.7125% Note: One successful source step
Supplies reduced to  37.2754% Note: One successful source step
Supplies reduced to  41.1198% Note: One successful source step
Supplies reduced to  46.8863% Supplies reduced to  41.1198% Note: One successful source step
Supplies reduced to  41.9848% Note: One successful source step
Supplies reduced to  43.2822% Note: One successful source step
Supplies reduced to  45.2284% Note: One successful source step
Supplies reduced to  48.1477% Note: One successful source step
Supplies reduced to  51.0670% Note: One successful source step
Supplies reduced to  55.4459% Note: One successful source step
Supplies reduced to  62.0143% Note: One successful source step
Supplies reduced to  71.8670% Note: One successful source step
Supplies reduced to  86.6459% Note: One successful source step
Supplies reduced to 100.0000% Supplies reduced to  86.6459% Note: One successful source step
Supplies reduced to  87.6459% Note: One successful source step
Supplies reduced to  89.1459% Note: One successful source step
Supplies reduced to  91.3959% Note: One successful source step
Supplies reduced to  94.7709% Supplies reduced to  91.3959% Note: One successful source step
Supplies reduced to  91.9021% Note: One successful source step
Supplies reduced to  92.6615% Note: One successful source step
Supplies reduced to  93.8006% Note: One successful source step
Supplies reduced to  95.5092% Supplies reduced to  93.8006% Note: One successful source step
Supplies reduced to  94.0568% Supplies reduced to  93.8006% Note: One successful source step
Supplies reduced to  93.8390% Note: One successful source step
Supplies reduced to  93.8967% Supplies reduced to  93.8390% Note: One successful source step
Supplies reduced to  93.8477% Supplies reduced to  93.8390% Note: One successful source step
Supplies reduced to  93.8403% Supplies reduced to  93.8390% Note: One successful source step
Supplies reduced to  93.8392% Supplies reduced to  93.8390% Note: One successful source step
Supplies reduced to  93.8390% Note: One successful source step
Supplies reduced to  93.8391% Note: One successful source step
Supplies reduced to  93.8391% Warning: source stepping failed
doAnalyses: Too many iterations without convergence

dc simulation(s) aborted
Error(parse.c--checkvalid): vldo_sup_2_8: zero length vector.
Error: RHS "abs((vldo_sup_2_8-vldo_sup_2)/0.8)" invalid
Error(parse.c--checkvalid): line_reg: zero length vector.
Error(parse.c--checkvalid): vin: zero length vector.
Error: RHS "vin-1.764" invalid
Error(parse.c--checkvalid): dropout: zero length vector.
Error: no such vector dropout
Note: No ".plot", ".print", or ".fourier" lines; no simulations run
pm                  =  6.191804e+01
Doing analysis at TEMP = 0.000000 and TNOM = 27.000000


No. of Data Rows : 91
psrr100             =  -1.310620e+01
psrr100k            =  -5.559742e+00
Doing analysis at TEMP = 0.000000 and TNOM = 27.000000


No. of Data Rows : 86
temp_coeff = 6.329954e+01
Doing analysis at TEMP = 0.000000 and TNOM = 27.000000


Error: measure  vldo_sup_2  (AT) : out of interval
 meas dc vldo_sup_2 find ldo_out at=2 failed!


Error: measure  vldo_sup_2_8  (AT) : out of interval
 meas dc vldo_sup_2_8 find ldo_out at=2.8 failed!


Error: measure  vin  (WHEN) : out of interval
 meas dc vin when v(ldo_out)=1.764 failed!

