 Reference value :  0.00000e+00
No compatibility mode selected!


Circuit: * ldo netlist 

Doing analysis at TEMP = 27.000000 and TNOM = 27.000000


No. of Data Rows : 1
bg_out = 1.187579e+00
inn = 1.214828e+00
inp = 1.214803e+00
l1#branch = 0.000000e+00
ldo_out = 1.785821e+00
m.xm1.msky130_fd_pr__nfet_g5v0d10v5#body = 1.590564e-11
m.xm1.msky130_fd_pr__nfet_g5v0d10v5#dbody = 3.177175e-11
m.xm1.msky130_fd_pr__nfet_g5v0d10v5#sbody = 1.594516e-11
m.xm2.msky130_fd_pr__pfet_g5v0d10v5#body = 2.100000e+00
m.xm2.msky130_fd_pr__pfet_g5v0d10v5#dbody = 2.100000e+00
m.xm2.msky130_fd_pr__pfet_g5v0d10v5#sbody = 2.100000e+00
m.xm3.msky130_fd_pr__pfet_g5v0d10v5#body = 2.100000e+00
m.xm3.msky130_fd_pr__pfet_g5v0d10v5#dbody = 2.100000e+00
m.xm3.msky130_fd_pr__pfet_g5v0d10v5#sbody = 2.100000e+00
m.xm4.msky130_fd_pr__pfet_g5v0d10v5#body = 2.100000e+00
m.xm4.msky130_fd_pr__pfet_g5v0d10v5#dbody = 2.100000e+00
m.xm4.msky130_fd_pr__pfet_g5v0d10v5#sbody = 2.100000e+00
m.xm5.msky130_fd_pr__pfet_g5v0d10v5#body = 2.100000e+00
m.xm5.msky130_fd_pr__pfet_g5v0d10v5#dbody = 2.100000e+00
m.xm5.msky130_fd_pr__pfet_g5v0d10v5#sbody = 2.100000e+00
m.xm6.msky130_fd_pr__nfet_g5v0d10v5#body = 1.124680e-11
m.xm6.msky130_fd_pr__nfet_g5v0d10v5#dbody = 2.811700e-11
m.xm6.msky130_fd_pr__nfet_g5v0d10v5#sbody = 5.623407e-12
m.xm7.msky130_fd_pr__pfet_g5v0d10v5#body = 2.100000e+00
m.xm7.msky130_fd_pr__pfet_g5v0d10v5#dbody = 2.100000e+00
m.xm7.msky130_fd_pr__pfet_g5v0d10v5#sbody = 2.100000e+00
m.xm8.msky130_fd_pr__pfet_g5v0d10v5#body = 2.100000e+00
m.xm8.msky130_fd_pr__pfet_g5v0d10v5#dbody = 2.100000e+00
m.xm8.msky130_fd_pr__pfet_g5v0d10v5#sbody = 2.100000e+00
m.xm9.msky130_fd_pr__nfet_g5v0d10v5#body = 1.656134e-11
m.xm9.msky130_fd_pr__nfet_g5v0d10v5#dbody = 3.422736e-11
m.xm9.msky130_fd_pr__nfet_g5v0d10v5#sbody = 1.545665e-11
m.xm10.msky130_fd_pr__nfet_g5v0d10v5#body = 1.637062e-11
m.xm10.msky130_fd_pr__nfet_g5v0d10v5#dbody = 3.375056e-11
m.xm10.msky130_fd_pr__nfet_g5v0d10v5#sbody = 1.536129e-11
m.xm11.msky130_fd_pr__pfet_g5v0d10v5#body = 2.100000e+00
m.xm11.msky130_fd_pr__pfet_g5v0d10v5#dbody = 2.100000e+00
m.xm11.msky130_fd_pr__pfet_g5v0d10v5#sbody = 2.100000e+00
m.xm12.msky130_fd_pr__pfet_g5v0d10v5#body = 2.100000e+00
m.xm12.msky130_fd_pr__pfet_g5v0d10v5#dbody = 2.100000e+00
m.xm12.msky130_fd_pr__pfet_g5v0d10v5#sbody = 2.100000e+00
m.xm13.msky130_fd_pr__nfet_g5v0d10v5#body = 3.586631e-12
m.xm13.msky130_fd_pr__nfet_g5v0d10v5#dbody = 8.966567e-12
m.xm13.msky130_fd_pr__nfet_g5v0d10v5#sbody = 1.793326e-12
m.xm14.msky130_fd_pr__pfet_g5v0d10v5#body = 2.100000e+00
m.xm14.msky130_fd_pr__pfet_g5v0d10v5#dbody = 2.100000e+00
m.xm14.msky130_fd_pr__pfet_g5v0d10v5#sbody = 2.100000e+00
m.xm15.msky130_fd_pr__nfet_g5v0d10v5#body = 2.940495e-17
m.xm15.msky130_fd_pr__nfet_g5v0d10v5#dbody = 7.350980e-17
m.xm15.msky130_fd_pr__nfet_g5v0d10v5#sbody = 1.470506e-17
m.xm16.msky130_fd_pr__nfet_g5v0d10v5#body = 4.144400e-11
m.xm16.msky130_fd_pr__nfet_g5v0d10v5#dbody = 7.323065e-11
m.xm16.msky130_fd_pr__nfet_g5v0d10v5#sbody = 5.110134e-11
m.xm17.msky130_fd_pr__pfet_g5v0d10v5#body = 2.100000e+00
m.xm17.msky130_fd_pr__pfet_g5v0d10v5#dbody = 2.100000e+00
m.xm17.msky130_fd_pr__pfet_g5v0d10v5#sbody = 2.100000e+00
m.xm18.msky130_fd_pr__nfet_g5v0d10v5#body = 1.726944e-11
m.xm18.msky130_fd_pr__nfet_g5v0d10v5#dbody = 4.317180e-11
m.xm18.msky130_fd_pr__nfet_g5v0d10v5#sbody = 8.634734e-12
m.xm19.msky130_fd_pr__nfet_g5v0d10v5#body = 1.593806e-11
m.xm19.msky130_fd_pr__nfet_g5v0d10v5#dbody = 3.185281e-11
m.xm19.msky130_fd_pr__nfet_g5v0d10v5#sbody = 1.596137e-11
m.xm20.msky130_fd_pr__nfet_g5v0d10v5#body = 1.126627e-11
m.xm20.msky130_fd_pr__nfet_g5v0d10v5#dbody = 2.816567e-11
m.xm20.msky130_fd_pr__nfet_g5v0d10v5#sbody = 5.633148e-12
m.xm22.msky130_fd_pr__nfet_g5v0d10v5#body = 3.998884e-12
m.xm22.msky130_fd_pr__nfet_g5v0d10v5#dbody = 9.997206e-12
m.xm22.msky130_fd_pr__nfet_g5v0d10v5#sbody = 1.999447e-12
m.xm24.msky130_fd_pr__pfet_g5v0d10v5#body = 2.100000e+00
m.xm24.msky130_fd_pr__pfet_g5v0d10v5#dbody = 2.100000e+00
m.xm24.msky130_fd_pr__pfet_g5v0d10v5#sbody = 2.100000e+00
m.xm26.msky130_fd_pr__pfet_g5v0d10v5#body = 2.100000e+00
m.xm26.msky130_fd_pr__pfet_g5v0d10v5#dbody = 2.100000e+00
m.xm26.msky130_fd_pr__pfet_g5v0d10v5#sbody = 2.100000e+00
mir = 9.524113e-01
net1 = 7.192161e-01
net2 = 2.262604e-06
net3 = 7.788786e-01
net4 = 3.193477e-01
net5 = 9.550053e-01
net6 = 8.991812e-01
net7 = 7.788529e-01
net8 = 1.022373e+00
net9 = 1.037630e+00
net10 = 2.868016e-01
net11 = 1.381355e+00
net12 = 1.381355e+00
net13 = 0.000000e+00
out = 1.381355e+00
pos = 1.187750e+00
q.xq2.qsky130_fd_pr__pnp_05v5_w0p68l0p68#collcx = 2.149179e-03
q.xq3.qsky130_fd_pr__pnp_05v5_w0p68l0p68#collcx = 2.699665e-04
q.xq4.qsky130_fd_pr__pnp_05v5_w0p68l0p68#collcx = 2.699665e-04
q.xq8.qsky130_fd_pr__pnp_05v5_w0p68l0p68#collcx = 2.699665e-04
q.xq10.qsky130_fd_pr__pnp_05v5_w0p68l0p68#collcx = 2.699665e-04
q.xq12.qsky130_fd_pr__pnp_05v5_w0p68l0p68#collcx = 2.699665e-04
q.xq14.qsky130_fd_pr__pnp_05v5_w0p68l0p68#collcx = 2.699665e-04
q.xq16.qsky130_fd_pr__pnp_05v5_w0p68l0p68#collcx = 2.699665e-04
q.xq18.qsky130_fd_pr__pnp_05v5_w0p68l0p68#collcx = 2.699665e-04
vb = 9.011728e-01
vdd = 2.100000e+00
vs#branch = -1.70859e-04
vt#branch = 0.000000e+00
xc1.a = 0.000000e+00
xc1.b1 = 0.000000e+00
xc3.a = 1.381355e+00
xc3.b1 = 1.381355e+00
xr1.xsky130_fd_pr__res_xhigh_po_0p69.ra = 7.863676e-01
xr2.xsky130_fd_pr__res_xhigh_po_0p69.ra = 7.863933e-01
xr3.xsky130_fd_pr__res_xhigh_po_0p69.ra = 5.068547e-03
xr4.xsky130_fd_pr__res_xhigh_po_0p69.ra = 7.217584e-01
xr5.xsky130_fd_pr__res_xhigh_po_0p69.ra = 5.068369e-03
xr6.xsky130_fd_pr__res_xhigh_po_0p69.ra = 7.986097e-03
xr7.xsky130_fd_pr__res_xhigh_po_0p69.ra = 1.381355e+00
xr8.xsky130_fd_pr__res_xhigh_po_0p69.ra = 1.201040e+00
xr9.xsky130_fd_pr__res_xhigh_po_0p69.ra = 1.393516e-02
Doing analysis at TEMP = 27.000000 and TNOM = 27.000000


No. of Data Rows : 91
Note: Starting true gmin stepping
Trying gmin =   1.0000E-03 Note: One successful gmin step
Trying gmin =   1.0000E-04 Note: One successful gmin step
Trying gmin =   1.0000E-05 Note: One successful gmin step
Trying gmin =   1.0000E-06 Note: One successful gmin step
Trying gmin =   1.0000E-07 Note: One successful gmin step
Trying gmin =   1.0000E-08 Warning: Further gmin increment
Trying gmin =   5.6234E-08 Note: One successful gmin step
Trying gmin =   2.3714E-08 Warning: Further gmin increment
Trying gmin =   4.5316E-08 Note: One successful gmin step
Trying gmin =   3.2781E-08 Warning: Further gmin increment
Trying gmin =   4.1792E-08 Note: One successful gmin step
Trying gmin =   3.7013E-08 Note: One successful gmin step
Trying gmin =   3.2781E-08 Note: One successful gmin step
Trying gmin =   2.7323E-08 Note: One successful gmin step
Trying gmin =   2.0791E-08 Note: One successful gmin step
Trying gmin =   1.3800E-08 Note: One successful gmin step
Trying gmin =   7.4632E-09 Note: One successful gmin step
Trying gmin =   2.9681E-09 Note: One successful gmin step
Trying gmin =   7.4438E-10 Note: One successful gmin step
Trying gmin =   9.3493E-11 Note: One successful gmin step
Trying gmin =   9.3493E-12 Note: One successful gmin step
Trying gmin =   1.0000E-12 Note: One successful gmin step
Note: True gmin stepping completed
 Reference value :  2.80000e+00Note: Starting true gmin stepping
Trying gmin =   1.0000E-03 Note: One successful gmin step
Trying gmin =   1.0000E-04 Note: One successful gmin step
Trying gmin =   1.0000E-05 Note: One successful gmin step
Trying gmin =   1.0000E-06 Note: One successful gmin step
Trying gmin =   1.0000E-07 Note: One successful gmin step
Trying gmin =   1.0000E-08 Warning: Further gmin increment
Trying gmin =   5.6234E-08 Note: One successful gmin step
Trying gmin =   2.3714E-08 Note: One successful gmin step
Trying gmin =   1.0000E-08 Note: One successful gmin step
Trying gmin =   2.7384E-09 Warning: Further gmin increment
Trying gmin =   7.2339E-09 Note: One successful gmin step
Trying gmin =   4.4508E-09 Note: One successful gmin step
Trying gmin =   2.1480E-09 Note: One successful gmin step
Trying gmin =   7.2015E-10 Note: One successful gmin step
Trying gmin =   1.3980E-10 Note: One successful gmin step
Trying gmin =   1.3980E-11 Note: One successful gmin step
Trying gmin =   1.3980E-12 Note: One successful gmin step
Trying gmin =   1.0000E-12 Note: One successful gmin step
Note: True gmin stepping completed
 Reference value :  1.28000e+00Note: Starting true gmin stepping
Trying gmin =   1.0000E-03 Note: One successful gmin step
Trying gmin =   1.0000E-04 Note: One successful gmin step
Trying gmin =   1.0000E-05 Note: One successful gmin step
Trying gmin =   1.0000E-06 Note: One successful gmin step
Trying gmin =   1.0000E-07 Note: One successful gmin step
Trying gmin =   1.0000E-08 Warning: Further gmin increment
Trying gmin =   5.6234E-08 Note: One successful gmin step
Trying gmin =   2.3714E-08 Note: One successful gmin step
Trying gmin =   1.0000E-08 Note: One successful gmin step
Trying gmin =   2.7384E-09 Warning: Further gmin increment
Trying gmin =   7.2339E-09 Note: One successful gmin step
Trying gmin =   4.4508E-09 Warning: Further gmin increment
Trying gmin =   6.4068E-09 Note: One successful gmin step
Trying gmin =   5.3400E-09 Note: One successful gmin step
Trying gmin =   4.0634E-09 Note: One successful gmin step
Trying gmin =   2.6972E-09 Note: One successful gmin step
Trying gmin =   1.4586E-09 Note: One successful gmin step
Trying gmin =   5.8008E-10 Note: One successful gmin step
Trying gmin =   1.4548E-10 Note: One successful gmin step
Trying gmin =   1.8272E-11 Note: One successful gmin step
Trying gmin =   1.8272E-12 Note: One successful gmin step
Trying gmin =   1.0000E-12 Note: One successful gmin step
Note: True gmin stepping completed
 Reference value :  6.60000e-01pm                  =  5.405446e+01
Doing analysis at TEMP = 27.000000 and TNOM = 27.000000


No. of Data Rows : 91
psrr100             =  -7.377772e+01
psrr100k            =  -2.778943e+01
Doing analysis at TEMP = 27.000000 and TNOM = 27.000000


No. of Data Rows : 86
temp_coeff = 6.596062e+01
Doing analysis at TEMP = 27.000000 and TNOM = 27.000000


No. of Data Rows : 141
vldo_sup_2          =  1.785840e+00
vldo_sup_2_8        =  1.785750e+00
line_reg = 1.125000e-04
Note: No ".plot", ".print", or ".fourier" lines; no simulations run
vin                 =  1.764104e+00
dropout = 1.040000e-04
