 Reference value :  0.00000e+00
No compatibility mode selected!


Circuit: * ldo netlist 

Doing analysis at TEMP = 85.000000 and TNOM = 27.000000


No. of Data Rows : 1
bg_out = 1.199608e+00
inn = 1.146337e+00
inp = 1.146262e+00
l1#branch = 0.000000e+00
ldo_out = 1.804770e+00
m.xm1.msky130_fd_pr__nfet_g5v0d10v5#body = 2.653611e-11
m.xm1.msky130_fd_pr__nfet_g5v0d10v5#dbody = 4.996785e-11
m.xm1.msky130_fd_pr__nfet_g5v0d10v5#sbody = 2.964048e-11
m.xm2.msky130_fd_pr__pfet_g5v0d10v5#body = 2.100000e+00
m.xm2.msky130_fd_pr__pfet_g5v0d10v5#dbody = 2.100000e+00
m.xm2.msky130_fd_pr__pfet_g5v0d10v5#sbody = 2.100000e+00
m.xm3.msky130_fd_pr__pfet_g5v0d10v5#body = 2.100000e+00
m.xm3.msky130_fd_pr__pfet_g5v0d10v5#dbody = 2.100000e+00
m.xm3.msky130_fd_pr__pfet_g5v0d10v5#sbody = 2.100000e+00
m.xm4.msky130_fd_pr__pfet_g5v0d10v5#body = 2.100000e+00
m.xm4.msky130_fd_pr__pfet_g5v0d10v5#dbody = 2.100000e+00
m.xm4.msky130_fd_pr__pfet_g5v0d10v5#sbody = 2.100000e+00
m.xm5.msky130_fd_pr__pfet_g5v0d10v5#body = 2.100000e+00
m.xm5.msky130_fd_pr__pfet_g5v0d10v5#dbody = 2.100000e+00
m.xm5.msky130_fd_pr__pfet_g5v0d10v5#sbody = 2.100000e+00
m.xm6.msky130_fd_pr__nfet_g5v0d10v5#body = 2.049984e-11
m.xm6.msky130_fd_pr__nfet_g5v0d10v5#dbody = 5.124949e-11
m.xm6.msky130_fd_pr__nfet_g5v0d10v5#sbody = 1.025003e-11
m.xm7.msky130_fd_pr__pfet_g5v0d10v5#body = 2.100000e+00
m.xm7.msky130_fd_pr__pfet_g5v0d10v5#dbody = 2.100000e+00
m.xm7.msky130_fd_pr__pfet_g5v0d10v5#sbody = 2.100000e+00
m.xm8.msky130_fd_pr__pfet_g5v0d10v5#body = 2.100000e+00
m.xm8.msky130_fd_pr__pfet_g5v0d10v5#dbody = 2.100000e+00
m.xm8.msky130_fd_pr__pfet_g5v0d10v5#sbody = 2.100000e+00
m.xm9.msky130_fd_pr__nfet_g5v0d10v5#body = 2.473489e-11
m.xm9.msky130_fd_pr__nfet_g5v0d10v5#dbody = 4.828342e-11
m.xm9.msky130_fd_pr__nfet_g5v0d10v5#sbody = 2.592126e-11
m.xm10.msky130_fd_pr__nfet_g5v0d10v5#body = 2.464216e-11
m.xm10.msky130_fd_pr__nfet_g5v0d10v5#dbody = 4.805158e-11
m.xm10.msky130_fd_pr__nfet_g5v0d10v5#sbody = 2.587489e-11
m.xm11.msky130_fd_pr__pfet_g5v0d10v5#body = 2.100000e+00
m.xm11.msky130_fd_pr__pfet_g5v0d10v5#dbody = 2.100000e+00
m.xm11.msky130_fd_pr__pfet_g5v0d10v5#sbody = 2.100000e+00
m.xm12.msky130_fd_pr__pfet_g5v0d10v5#body = 2.100000e+00
m.xm12.msky130_fd_pr__pfet_g5v0d10v5#dbody = 2.100000e+00
m.xm12.msky130_fd_pr__pfet_g5v0d10v5#sbody = 2.100000e+00
m.xm13.msky130_fd_pr__nfet_g5v0d10v5#body = 5.130079e-12
m.xm13.msky130_fd_pr__nfet_g5v0d10v5#dbody = 1.282513e-11
m.xm13.msky130_fd_pr__nfet_g5v0d10v5#sbody = 2.565106e-12
m.xm14.msky130_fd_pr__pfet_g5v0d10v5#body = 2.100000e+00
m.xm14.msky130_fd_pr__pfet_g5v0d10v5#dbody = 2.100000e+00
m.xm14.msky130_fd_pr__pfet_g5v0d10v5#sbody = 2.100000e+00
m.xm15.msky130_fd_pr__nfet_g5v0d10v5#body = 8.717710e-15
m.xm15.msky130_fd_pr__nfet_g5v0d10v5#dbody = 2.179392e-14
m.xm15.msky130_fd_pr__nfet_g5v0d10v5#sbody = 4.359209e-15
m.xm16.msky130_fd_pr__nfet_g5v0d10v5#body = 5.120777e-11
m.xm16.msky130_fd_pr__nfet_g5v0d10v5#dbody = 8.873244e-11
m.xm16.msky130_fd_pr__nfet_g5v0d10v5#sbody = 6.489086e-11
m.xm17.msky130_fd_pr__pfet_g5v0d10v5#body = 2.100000e+00
m.xm17.msky130_fd_pr__pfet_g5v0d10v5#dbody = 2.100000e+00
m.xm17.msky130_fd_pr__pfet_g5v0d10v5#sbody = 2.100000e+00
m.xm18.msky130_fd_pr__nfet_g5v0d10v5#body = 1.028661e-11
m.xm18.msky130_fd_pr__nfet_g5v0d10v5#dbody = 2.571645e-11
m.xm18.msky130_fd_pr__nfet_g5v0d10v5#sbody = 5.143379e-12
m.xm19.msky130_fd_pr__nfet_g5v0d10v5#body = 2.663334e-11
m.xm19.msky130_fd_pr__nfet_g5v0d10v5#dbody = 5.021091e-11
m.xm19.msky130_fd_pr__nfet_g5v0d10v5#sbody = 2.968910e-11
m.xm20.msky130_fd_pr__nfet_g5v0d10v5#body = 1.455842e-11
m.xm20.msky130_fd_pr__nfet_g5v0d10v5#dbody = 3.639596e-11
m.xm20.msky130_fd_pr__nfet_g5v0d10v5#sbody = 7.279285e-12
m.xm22.msky130_fd_pr__nfet_g5v0d10v5#body = 1.147856e-11
m.xm22.msky130_fd_pr__nfet_g5v0d10v5#dbody = 2.869631e-11
m.xm22.msky130_fd_pr__nfet_g5v0d10v5#sbody = 5.739389e-12
m.xm24.msky130_fd_pr__pfet_g5v0d10v5#body = 2.100000e+00
m.xm24.msky130_fd_pr__pfet_g5v0d10v5#dbody = 2.100000e+00
m.xm24.msky130_fd_pr__pfet_g5v0d10v5#sbody = 2.100000e+00
m.xm26.msky130_fd_pr__pfet_g5v0d10v5#body = 2.100000e+00
m.xm26.msky130_fd_pr__pfet_g5v0d10v5#dbody = 2.100000e+00
m.xm26.msky130_fd_pr__pfet_g5v0d10v5#sbody = 2.100000e+00
mir = 1.042850e+00
net1 = 6.298043e-01
net2 = 1.679279e-05
net3 = 7.033535e-01
net4 = 2.301733e-01
net5 = 1.050627e+00
net6 = 9.511967e-01
net7 = 7.032774e-01
net8 = 1.135900e+00
net9 = 1.143319e+00
net10 = 2.489958e-01
net11 = 6.614278e-01
net12 = 6.614277e-01
net13 = 0.000000e+00
out = 6.614277e-01
pos = 1.199700e+00
q.xq2.qsky130_fd_pr__pnp_05v5_w0p68l0p68#collcx = 2.962889e-03
q.xq3.qsky130_fd_pr__pnp_05v5_w0p68l0p68#collcx = 3.739750e-04
q.xq4.qsky130_fd_pr__pnp_05v5_w0p68l0p68#collcx = 3.739750e-04
q.xq8.qsky130_fd_pr__pnp_05v5_w0p68l0p68#collcx = 3.739750e-04
q.xq10.qsky130_fd_pr__pnp_05v5_w0p68l0p68#collcx = 3.739750e-04
q.xq12.qsky130_fd_pr__pnp_05v5_w0p68l0p68#collcx = 3.739750e-04
q.xq14.qsky130_fd_pr__pnp_05v5_w0p68l0p68#collcx = 3.739750e-04
q.xq16.qsky130_fd_pr__pnp_05v5_w0p68l0p68#collcx = 3.739750e-04
q.xq18.qsky130_fd_pr__pnp_05v5_w0p68l0p68#collcx = 3.739750e-04
vb = 1.003172e+00
vdd = 2.100000e+00
vs#branch = -1.00401e-01
vt#branch = 0.000000e+00
xc1.a = 0.000000e+00
xc1.b1 = 0.000000e+00
xc3.a = 6.614278e-01
xc3.b1 = 6.614278e-01
xr1.xsky130_fd_pr__res_xhigh_po_0p69.ra = 7.090916e-01
xr2.xsky130_fd_pr__res_xhigh_po_0p69.ra = 7.091677e-01
xr3.xsky130_fd_pr__res_xhigh_po_0p69.ra = 3.467934e-03
xr4.xsky130_fd_pr__res_xhigh_po_0p69.ra = 6.321831e-01
xr5.xsky130_fd_pr__res_xhigh_po_0p69.ra = 3.467536e-03
xr6.xsky130_fd_pr__res_xhigh_po_0p69.ra = 6.156502e-03
xr7.xsky130_fd_pr__res_xhigh_po_0p69.ra = 6.614277e-01
xr8.xsky130_fd_pr__res_xhigh_po_0p69.ra = 1.209933e+00
xr9.xsky130_fd_pr__res_xhigh_po_0p69.ra = 1.073347e-02
Doing analysis at TEMP = 85.000000 and TNOM = 27.000000


No. of Data Rows : 91
Note: Starting true gmin stepping
Trying gmin =   1.0000E-03 Note: One successful gmin step
Trying gmin =   1.0000E-04 Note: One successful gmin step
Trying gmin =   1.0000E-05 Note: One successful gmin step
Trying gmin =   1.0000E-06 Note: One successful gmin step
Trying gmin =   1.0000E-07 Warning: Further gmin increment
Trying gmin =   5.6234E-07 Note: One successful gmin step
Trying gmin =   2.3714E-07 Note: One successful gmin step
Trying gmin =   6.4938E-08 Warning: Further gmin increment
Trying gmin =   1.7154E-07 Note: One successful gmin step
Trying gmin =   1.0554E-07 Warning: Further gmin increment
Trying gmin =   1.5193E-07 Warning: Further gmin increment
Trying gmin =   1.6641E-07 Note: One successful gmin step
Trying gmin =   1.5901E-07 Note: One successful gmin step
Trying gmin =   1.4851E-07 Warning: Further gmin increment
Trying gmin =   1.5631E-07 Note: One successful gmin step
Trying gmin =   1.5236E-07 Warning: Further gmin increment
Trying gmin =   1.5532E-07 Note: One successful gmin step
Trying gmin =   1.5383E-07 Warning: Further gmin increment
Trying gmin =   1.5494E-07 Note: One successful gmin step
Trying gmin =   1.5439E-07 Note: One successful gmin step
Trying gmin =   1.5356E-07 Warning: Further gmin increment
Trying gmin =   1.5418E-07 Note: One successful gmin step
Trying gmin =   1.5387E-07 Warning: Further gmin increment
Trying gmin =   1.5410E-07 Note: One successful gmin step
Trying gmin =   1.5398E-07 Warning: Further gmin increment
Trying gmin =   1.5407E-07 Note: One successful gmin step
Trying gmin =   1.5403E-07 Warning: Further gmin increment
Trying gmin =   1.5406E-07 Note: One successful gmin step
Trying gmin =   1.5404E-07 Warning: Further gmin increment
Trying gmin =   1.5406E-07 Note: One successful gmin step
Trying gmin =   1.5405E-07 Warning: Last gmin step failed
Warning: True gmin stepping failed
Note: Starting dynamic gmin stepping
Trying gmin =   1.0000E-03 Note: One successful gmin step
Trying gmin =   1.0000E-04 Note: One successful gmin step
Trying gmin =   1.0000E-05 Note: One successful gmin step
Trying gmin =   1.0000E-06 Note: One successful gmin step
Trying gmin =   1.0000E-07 Note: One successful gmin step
Trying gmin =   1.0000E-08 Note: One successful gmin step
Trying gmin =   1.0000E-09 Note: One successful gmin step
Trying gmin =   1.0000E-10 Note: One successful gmin step
Trying gmin =   1.0000E-11 Note: One successful gmin step
Trying gmin =   1.0000E-12 Note: One successful gmin step
Trying gmin =   1.0000E-12 Note: One successful gmin step
Note: Dynamic gmin stepping completed
 Reference value :  2.80000e+00Note: Starting true gmin stepping
Trying gmin =   1.0000E-03 Note: One successful gmin step
Trying gmin =   1.0000E-04 Note: One successful gmin step
Trying gmin =   1.0000E-05 Note: One successful gmin step
Trying gmin =   1.0000E-06 Note: One successful gmin step
Trying gmin =   1.0000E-07 Note: One successful gmin step
Trying gmin =   1.0000E-08 Note: One successful gmin step
Trying gmin =   1.0000E-09 Note: One successful gmin step
Trying gmin =   1.0000E-10 Warning: Further gmin increment
Trying gmin =   5.6234E-10 Note: One successful gmin step
Trying gmin =   2.3714E-10 Note: One successful gmin step
Trying gmin =   6.4938E-11 Warning: Further gmin increment
Trying gmin =   1.7154E-10 Note: One successful gmin step
Trying gmin =   1.0554E-10 Note: One successful gmin step
Trying gmin =   5.0937E-11 Note: One successful gmin step
Trying gmin =   1.7077E-11 Note: One successful gmin step
Trying gmin =   3.3152E-12 Note: One successful gmin step
Trying gmin =   1.0000E-12 Note: One successful gmin step
Note: True gmin stepping completed
 Reference value :  1.04000e+00pm                  =  1.029350e+02
Doing analysis at TEMP = 85.000000 and TNOM = 27.000000


No. of Data Rows : 91
psrr100             =  -4.597006e+01
psrr100k            =  -1.759081e+01
Doing analysis at TEMP = 85.000000 and TNOM = 27.000000


No. of Data Rows : 86
temp_coeff = 1.158295e+02
Doing analysis at TEMP = 85.000000 and TNOM = 27.000000


No. of Data Rows : 141
vldo_sup_2          =  1.804112e+00
vldo_sup_2_8        =  1.806602e+00
line_reg = 3.112500e-03
Note: No ".plot", ".print", or ".fourier" lines; no simulations run
vin                 =  1.916111e+00
dropout = 1.521110e-01
