 Reference value :  0.00000e+00
No compatibility mode selected!


Circuit: * ldo netlist 

Doing analysis at TEMP = 85.000000 and TNOM = 27.000000


No. of Data Rows : 1
bg_out = 1.203988e+00
inn = 1.150116e+00
inp = 1.150103e+00
l1#branch = 0.000000e+00
ldo_out = 1.811956e+00
m.xm1.msky130_fd_pr__nfet_g5v0d10v5#body = 3.021478e-11
m.xm1.msky130_fd_pr__nfet_g5v0d10v5#dbody = 5.674567e-11
m.xm1.msky130_fd_pr__nfet_g5v0d10v5#sbody = 3.389865e-11
m.xm2.msky130_fd_pr__pfet_g5v0d10v5#body = 2.500000e+00
m.xm2.msky130_fd_pr__pfet_g5v0d10v5#dbody = 2.500000e+00
m.xm2.msky130_fd_pr__pfet_g5v0d10v5#sbody = 2.500000e+00
m.xm3.msky130_fd_pr__pfet_g5v0d10v5#body = 2.500000e+00
m.xm3.msky130_fd_pr__pfet_g5v0d10v5#dbody = 2.500000e+00
m.xm3.msky130_fd_pr__pfet_g5v0d10v5#sbody = 2.500000e+00
m.xm4.msky130_fd_pr__pfet_g5v0d10v5#body = 2.500000e+00
m.xm4.msky130_fd_pr__pfet_g5v0d10v5#dbody = 2.500000e+00
m.xm4.msky130_fd_pr__pfet_g5v0d10v5#sbody = 2.500000e+00
m.xm5.msky130_fd_pr__pfet_g5v0d10v5#body = 2.500000e+00
m.xm5.msky130_fd_pr__pfet_g5v0d10v5#dbody = 2.500000e+00
m.xm5.msky130_fd_pr__pfet_g5v0d10v5#sbody = 2.500000e+00
m.xm6.msky130_fd_pr__nfet_g5v0d10v5#body = 1.916170e-11
m.xm6.msky130_fd_pr__nfet_g5v0d10v5#dbody = 4.790414e-11
m.xm6.msky130_fd_pr__nfet_g5v0d10v5#sbody = 9.580970e-12
m.xm7.msky130_fd_pr__pfet_g5v0d10v5#body = 2.500000e+00
m.xm7.msky130_fd_pr__pfet_g5v0d10v5#dbody = 2.500000e+00
m.xm7.msky130_fd_pr__pfet_g5v0d10v5#sbody = 2.500000e+00
m.xm8.msky130_fd_pr__pfet_g5v0d10v5#body = 2.500000e+00
m.xm8.msky130_fd_pr__pfet_g5v0d10v5#dbody = 2.500000e+00
m.xm8.msky130_fd_pr__pfet_g5v0d10v5#sbody = 2.500000e+00
m.xm9.msky130_fd_pr__nfet_g5v0d10v5#body = 2.848008e-11
m.xm9.msky130_fd_pr__nfet_g5v0d10v5#dbody = 5.507095e-11
m.xm9.msky130_fd_pr__nfet_g5v0d10v5#sbody = 3.036927e-11
m.xm10.msky130_fd_pr__nfet_g5v0d10v5#body = 2.829733e-11
m.xm10.msky130_fd_pr__nfet_g5v0d10v5#dbody = 5.461408e-11
m.xm10.msky130_fd_pr__nfet_g5v0d10v5#sbody = 3.027790e-11
m.xm11.msky130_fd_pr__pfet_g5v0d10v5#body = 2.500000e+00
m.xm11.msky130_fd_pr__pfet_g5v0d10v5#dbody = 2.500000e+00
m.xm11.msky130_fd_pr__pfet_g5v0d10v5#sbody = 2.500000e+00
m.xm12.msky130_fd_pr__pfet_g5v0d10v5#body = 2.500000e+00
m.xm12.msky130_fd_pr__pfet_g5v0d10v5#dbody = 2.500000e+00
m.xm12.msky130_fd_pr__pfet_g5v0d10v5#sbody = 2.500000e+00
m.xm13.msky130_fd_pr__nfet_g5v0d10v5#body = 6.416908e-12
m.xm13.msky130_fd_pr__nfet_g5v0d10v5#dbody = 1.604220e-11
m.xm13.msky130_fd_pr__nfet_g5v0d10v5#sbody = 3.208526e-12
m.xm14.msky130_fd_pr__pfet_g5v0d10v5#body = 2.500000e+00
m.xm14.msky130_fd_pr__pfet_g5v0d10v5#dbody = 2.500000e+00
m.xm14.msky130_fd_pr__pfet_g5v0d10v5#sbody = 2.500000e+00
m.xm15.msky130_fd_pr__nfet_g5v0d10v5#body = 1.382061e-14
m.xm15.msky130_fd_pr__nfet_g5v0d10v5#dbody = 3.455033e-14
m.xm15.msky130_fd_pr__nfet_g5v0d10v5#sbody = 6.911487e-15
m.xm16.msky130_fd_pr__nfet_g5v0d10v5#body = 5.610682e-11
m.xm16.msky130_fd_pr__nfet_g5v0d10v5#dbody = 1.010338e-10
m.xm16.msky130_fd_pr__nfet_g5v0d10v5#sbody = 6.728669e-11
m.xm17.msky130_fd_pr__pfet_g5v0d10v5#body = 2.500000e+00
m.xm17.msky130_fd_pr__pfet_g5v0d10v5#dbody = 2.500000e+00
m.xm17.msky130_fd_pr__pfet_g5v0d10v5#sbody = 2.500000e+00
m.xm18.msky130_fd_pr__nfet_g5v0d10v5#body = 1.936962e-11
m.xm18.msky130_fd_pr__nfet_g5v0d10v5#dbody = 4.842295e-11
m.xm18.msky130_fd_pr__nfet_g5v0d10v5#sbody = 9.684893e-12
m.xm19.msky130_fd_pr__nfet_g5v0d10v5#body = 3.023415e-11
m.xm19.msky130_fd_pr__nfet_g5v0d10v5#dbody = 5.679412e-11
m.xm19.msky130_fd_pr__nfet_g5v0d10v5#sbody = 3.390834e-11
m.xm20.msky130_fd_pr__nfet_g5v0d10v5#body = 1.243513e-11
m.xm20.msky130_fd_pr__nfet_g5v0d10v5#dbody = 3.108775e-11
m.xm20.msky130_fd_pr__nfet_g5v0d10v5#sbody = 6.217644e-12
m.xm22.msky130_fd_pr__nfet_g5v0d10v5#body = 1.269108e-11
m.xm22.msky130_fd_pr__nfet_g5v0d10v5#dbody = 3.172759e-11
m.xm22.msky130_fd_pr__nfet_g5v0d10v5#sbody = 6.345656e-12
m.xm24.msky130_fd_pr__pfet_g5v0d10v5#body = 2.500000e+00
m.xm24.msky130_fd_pr__pfet_g5v0d10v5#dbody = 2.500000e+00
m.xm24.msky130_fd_pr__pfet_g5v0d10v5#sbody = 2.500000e+00
m.xm26.msky130_fd_pr__pfet_g5v0d10v5#body = 2.500000e+00
m.xm26.msky130_fd_pr__pfet_g5v0d10v5#dbody = 2.500000e+00
m.xm26.msky130_fd_pr__pfet_g5v0d10v5#sbody = 2.500000e+00
mir = 1.246317e+00
net1 = 6.314185e-01
net2 = 2.674106e-05
net3 = 7.052571e-01
net4 = 3.324545e-01
net5 = 1.247867e+00
net6 = 8.500732e-01
net7 = 7.052436e-01
net8 = 1.331224e+00
net9 = 1.345844e+00
net10 = 3.577825e-01
net11 = 1.393955e+00
net12 = 1.393955e+00
net13 = 0.000000e+00
out = 1.393955e+00
pos = 1.204146e+00
q.xq2.qsky130_fd_pr__pnp_05v5_w0p68l0p68#collcx = 3.102912e-03
q.xq3.qsky130_fd_pr__pnp_05v5_w0p68l0p68#collcx = 3.917713e-04
q.xq4.qsky130_fd_pr__pnp_05v5_w0p68l0p68#collcx = 3.917713e-04
q.xq8.qsky130_fd_pr__pnp_05v5_w0p68l0p68#collcx = 3.917713e-04
q.xq10.qsky130_fd_pr__pnp_05v5_w0p68l0p68#collcx = 3.917713e-04
q.xq12.qsky130_fd_pr__pnp_05v5_w0p68l0p68#collcx = 3.917713e-04
q.xq14.qsky130_fd_pr__pnp_05v5_w0p68l0p68#collcx = 3.917713e-04
q.xq16.qsky130_fd_pr__pnp_05v5_w0p68l0p68#collcx = 3.917713e-04
q.xq18.qsky130_fd_pr__pnp_05v5_w0p68l0p68#collcx = 3.917713e-04
vb = 8.392369e-01
vdd = 2.500000e+00
vs#branch = -1.02118e-02
vt#branch = 0.000000e+00
xc1.a = 0.000000e+00
xc1.b1 = 0.000000e+00
xc3.a = 1.393955e+00
xc3.b1 = 1.393955e+00
xr1.xsky130_fd_pr__res_xhigh_po_0p69.ra = 7.084198e-01
xr2.xsky130_fd_pr__res_xhigh_po_0p69.ra = 7.084333e-01
xr3.xsky130_fd_pr__res_xhigh_po_0p69.ra = 1.893545e-03
xr4.xsky130_fd_pr__res_xhigh_po_0p69.ra = 6.327187e-01
xr5.xsky130_fd_pr__res_xhigh_po_0p69.ra = 1.893506e-03
xr6.xsky130_fd_pr__res_xhigh_po_0p69.ra = 3.365590e-03
xr7.xsky130_fd_pr__res_xhigh_po_0p69.ra = 1.393955e+00
xr8.xsky130_fd_pr__res_xhigh_po_0p69.ra = 1.209737e+00
xr9.xsky130_fd_pr__res_xhigh_po_0p69.ra = 5.865712e-03
Doing analysis at TEMP = 85.000000 and TNOM = 27.000000


No. of Data Rows : 91
Note: Starting true gmin stepping
Trying gmin =   1.0000E-03 Note: One successful gmin step
Trying gmin =   1.0000E-04 Note: One successful gmin step
Trying gmin =   1.0000E-05 Note: One successful gmin step
Trying gmin =   1.0000E-06 Note: One successful gmin step
Trying gmin =   1.0000E-07 Note: One successful gmin step
Trying gmin =   1.0000E-08 Warning: Further gmin increment
Trying gmin =   5.6234E-08 Note: One successful gmin step
Trying gmin =   2.3714E-08 Note: One successful gmin step
Trying gmin =   6.4938E-09 Warning: Further gmin increment
Trying gmin =   1.7154E-08 Note: One successful gmin step
Trying gmin =   1.0554E-08 Note: One successful gmin step
Trying gmin =   5.0937E-09 Note: One successful gmin step
Trying gmin =   1.7077E-09 Note: One successful gmin step
Trying gmin =   3.3152E-10 Note: One successful gmin step
Trying gmin =   3.3152E-11 Note: One successful gmin step
Trying gmin =   3.3152E-12 Note: One successful gmin step
Trying gmin =   1.0000E-12 Note: One successful gmin step
Note: True gmin stepping completed
 Reference value :  1.24000e+00pm                  =  -7.884979e+01
Doing analysis at TEMP = 85.000000 and TNOM = 27.000000


No. of Data Rows : 91
psrr100             =  -5.338513e+01
psrr100k            =  -2.508883e+01
Doing analysis at TEMP = 85.000000 and TNOM = 27.000000


No. of Data Rows : 86
temp_coeff = 1.808974e+02
Doing analysis at TEMP = 85.000000 and TNOM = 27.000000


No. of Data Rows : 141
vldo_sup_2          =  1.810178e+00
vldo_sup_2_8        =  1.812637e+00
line_reg = 3.073750e-03
Note: No ".plot", ".print", or ".fourier" lines; no simulations run
vin                 =  1.788077e+00
dropout = 2.407700e-02
