 Reference value :  0.00000e+00
No compatibility mode selected!


Circuit: * ldo netlist 

Doing analysis at TEMP = 85.000000 and TNOM = 27.000000


No. of Data Rows : 1
bg_out = 1.203988e+00
inn = 1.150116e+00
inp = 1.150103e+00
l1#branch = -3.46945e-18
ldo_out = 1.811831e+00
m.xm1.msky130_fd_pr__nfet_g5v0d10v5#body = 3.021478e-11
m.xm1.msky130_fd_pr__nfet_g5v0d10v5#dbody = 5.674567e-11
m.xm1.msky130_fd_pr__nfet_g5v0d10v5#sbody = 3.389865e-11
m.xm2.msky130_fd_pr__pfet_g5v0d10v5#body = 2.500000e+00
m.xm2.msky130_fd_pr__pfet_g5v0d10v5#dbody = 2.500000e+00
m.xm2.msky130_fd_pr__pfet_g5v0d10v5#sbody = 2.500000e+00
m.xm3.msky130_fd_pr__pfet_g5v0d10v5#body = 2.500000e+00
m.xm3.msky130_fd_pr__pfet_g5v0d10v5#dbody = 2.500000e+00
m.xm3.msky130_fd_pr__pfet_g5v0d10v5#sbody = 2.500000e+00
m.xm4.msky130_fd_pr__pfet_g5v0d10v5#body = 2.500000e+00
m.xm4.msky130_fd_pr__pfet_g5v0d10v5#dbody = 2.500000e+00
m.xm4.msky130_fd_pr__pfet_g5v0d10v5#sbody = 2.500000e+00
m.xm5.msky130_fd_pr__pfet_g5v0d10v5#body = 2.500000e+00
m.xm5.msky130_fd_pr__pfet_g5v0d10v5#dbody = 2.500000e+00
m.xm5.msky130_fd_pr__pfet_g5v0d10v5#sbody = 2.500000e+00
m.xm6.msky130_fd_pr__nfet_g5v0d10v5#body = 1.916170e-11
m.xm6.msky130_fd_pr__nfet_g5v0d10v5#dbody = 4.790414e-11
m.xm6.msky130_fd_pr__nfet_g5v0d10v5#sbody = 9.580970e-12
m.xm7.msky130_fd_pr__pfet_g5v0d10v5#body = 2.500000e+00
m.xm7.msky130_fd_pr__pfet_g5v0d10v5#dbody = 2.500000e+00
m.xm7.msky130_fd_pr__pfet_g5v0d10v5#sbody = 2.500000e+00
m.xm8.msky130_fd_pr__pfet_g5v0d10v5#body = 2.500000e+00
m.xm8.msky130_fd_pr__pfet_g5v0d10v5#dbody = 2.500000e+00
m.xm8.msky130_fd_pr__pfet_g5v0d10v5#sbody = 2.500000e+00
m.xm9.msky130_fd_pr__nfet_g5v0d10v5#body = 2.847955e-11
m.xm9.msky130_fd_pr__nfet_g5v0d10v5#dbody = 5.506998e-11
m.xm9.msky130_fd_pr__nfet_g5v0d10v5#sbody = 3.036868e-11
m.xm10.msky130_fd_pr__nfet_g5v0d10v5#body = 2.839305e-11
m.xm10.msky130_fd_pr__nfet_g5v0d10v5#dbody = 5.485373e-11
m.xm10.msky130_fd_pr__nfet_g5v0d10v5#sbody = 3.032543e-11
m.xm11.msky130_fd_pr__pfet_g5v0d10v5#body = 2.500000e+00
m.xm11.msky130_fd_pr__pfet_g5v0d10v5#dbody = 2.500000e+00
m.xm11.msky130_fd_pr__pfet_g5v0d10v5#sbody = 2.500000e+00
m.xm12.msky130_fd_pr__pfet_g5v0d10v5#body = 2.500000e+00
m.xm12.msky130_fd_pr__pfet_g5v0d10v5#dbody = 2.500000e+00
m.xm12.msky130_fd_pr__pfet_g5v0d10v5#sbody = 2.500000e+00
m.xm13.msky130_fd_pr__nfet_g5v0d10v5#body = 6.416739e-12
m.xm13.msky130_fd_pr__nfet_g5v0d10v5#dbody = 1.604178e-11
m.xm13.msky130_fd_pr__nfet_g5v0d10v5#sbody = 3.208441e-12
m.xm14.msky130_fd_pr__pfet_g5v0d10v5#body = 2.500000e+00
m.xm14.msky130_fd_pr__pfet_g5v0d10v5#dbody = 2.500000e+00
m.xm14.msky130_fd_pr__pfet_g5v0d10v5#sbody = 2.500000e+00
m.xm15.msky130_fd_pr__nfet_g5v0d10v5#body = 1.382061e-14
m.xm15.msky130_fd_pr__nfet_g5v0d10v5#dbody = 3.455033e-14
m.xm15.msky130_fd_pr__nfet_g5v0d10v5#sbody = 6.911487e-15
m.xm16.msky130_fd_pr__nfet_g5v0d10v5#body = 5.610682e-11
m.xm16.msky130_fd_pr__nfet_g5v0d10v5#dbody = 1.010338e-10
m.xm16.msky130_fd_pr__nfet_g5v0d10v5#sbody = 6.728669e-11
m.xm17.msky130_fd_pr__pfet_g5v0d10v5#body = 2.500000e+00
m.xm17.msky130_fd_pr__pfet_g5v0d10v5#dbody = 2.500000e+00
m.xm17.msky130_fd_pr__pfet_g5v0d10v5#sbody = 2.500000e+00
m.xm18.msky130_fd_pr__nfet_g5v0d10v5#body = 1.334174e-11
m.xm18.msky130_fd_pr__nfet_g5v0d10v5#dbody = 3.335428e-11
m.xm18.msky130_fd_pr__nfet_g5v0d10v5#sbody = 6.670950e-12
m.xm19.msky130_fd_pr__nfet_g5v0d10v5#body = 3.023415e-11
m.xm19.msky130_fd_pr__nfet_g5v0d10v5#dbody = 5.679412e-11
m.xm19.msky130_fd_pr__nfet_g5v0d10v5#sbody = 3.390834e-11
m.xm20.msky130_fd_pr__nfet_g5v0d10v5#body = 1.243513e-11
m.xm20.msky130_fd_pr__nfet_g5v0d10v5#dbody = 3.108775e-11
m.xm20.msky130_fd_pr__nfet_g5v0d10v5#sbody = 6.217644e-12
m.xm22.msky130_fd_pr__nfet_g5v0d10v5#body = 1.269108e-11
m.xm22.msky130_fd_pr__nfet_g5v0d10v5#dbody = 3.172759e-11
m.xm22.msky130_fd_pr__nfet_g5v0d10v5#sbody = 6.345656e-12
m.xm24.msky130_fd_pr__pfet_g5v0d10v5#body = 2.500000e+00
m.xm24.msky130_fd_pr__pfet_g5v0d10v5#dbody = 2.500000e+00
m.xm24.msky130_fd_pr__pfet_g5v0d10v5#sbody = 2.500000e+00
m.xm26.msky130_fd_pr__pfet_g5v0d10v5#body = 2.500000e+00
m.xm26.msky130_fd_pr__pfet_g5v0d10v5#dbody = 2.500000e+00
m.xm26.msky130_fd_pr__pfet_g5v0d10v5#sbody = 2.500000e+00
mir = 1.246317e+00
net1 = 6.314185e-01
net2 = 2.674106e-05
net3 = 7.052571e-01
net4 = 3.324545e-01
net5 = 1.247867e+00
net6 = 8.500732e-01
net7 = 7.052436e-01
net8 = 1.338895e+00
net9 = 1.345815e+00
net10 = 3.577690e-01
net11 = 9.117657e-01
net12 = 9.117657e-01
net13 = 0.000000e+00
out = 9.117657e-01
pos = 1.204063e+00
q.xq2.qsky130_fd_pr__pnp_05v5_w0p68l0p68#collcx = 3.102912e-03
q.xq3.qsky130_fd_pr__pnp_05v5_w0p68l0p68#collcx = 3.917713e-04
q.xq4.qsky130_fd_pr__pnp_05v5_w0p68l0p68#collcx = 3.917713e-04
q.xq8.qsky130_fd_pr__pnp_05v5_w0p68l0p68#collcx = 3.917713e-04
q.xq10.qsky130_fd_pr__pnp_05v5_w0p68l0p68#collcx = 3.917713e-04
q.xq12.qsky130_fd_pr__pnp_05v5_w0p68l0p68#collcx = 3.917713e-04
q.xq14.qsky130_fd_pr__pnp_05v5_w0p68l0p68#collcx = 3.917713e-04
q.xq16.qsky130_fd_pr__pnp_05v5_w0p68l0p68#collcx = 3.917713e-04
q.xq18.qsky130_fd_pr__pnp_05v5_w0p68l0p68#collcx = 3.917713e-04
vb = 8.392369e-01
vdd = 2.500000e+00
vs#branch = -1.00802e-01
vt#branch = 0.000000e+00
xc1.a = 0.000000e+00
xc1.b1 = 0.000000e+00
xc3.a = 9.117657e-01
xc3.b1 = 9.117657e-01
xr1.xsky130_fd_pr__res_xhigh_po_0p69.ra = 7.084198e-01
xr2.xsky130_fd_pr__res_xhigh_po_0p69.ra = 7.084333e-01
xr3.xsky130_fd_pr__res_xhigh_po_0p69.ra = 1.893545e-03
xr4.xsky130_fd_pr__res_xhigh_po_0p69.ra = 6.327187e-01
xr5.xsky130_fd_pr__res_xhigh_po_0p69.ra = 1.893506e-03
xr6.xsky130_fd_pr__res_xhigh_po_0p69.ra = 3.365590e-03
xr7.xsky130_fd_pr__res_xhigh_po_0p69.ra = 9.117657e-01
xr8.xsky130_fd_pr__res_xhigh_po_0p69.ra = 1.209654e+00
xr9.xsky130_fd_pr__res_xhigh_po_0p69.ra = 5.865272e-03
Doing analysis at TEMP = 85.000000 and TNOM = 27.000000


No. of Data Rows : 91
 Reference value :  2.44000e+00Note: Starting true gmin stepping
Trying gmin =   1.0000E-03 Note: One successful gmin step
Trying gmin =   1.0000E-04 Note: One successful gmin step
Trying gmin =   1.0000E-05 Note: One successful gmin step
Trying gmin =   1.0000E-06 Note: One successful gmin step
Trying gmin =   1.0000E-07 Note: One successful gmin step
Trying gmin =   1.0000E-08 Note: One successful gmin step
Trying gmin =   3.1623E-09 Note: One successful gmin step
Trying gmin =   5.6234E-10 Note: One successful gmin step
Trying gmin =   5.6234E-11 Note: One successful gmin step
Trying gmin =   5.6234E-12 Note: One successful gmin step
Trying gmin =   1.0000E-12 Note: One successful gmin step
Note: True gmin stepping completed
 Reference value :  1.26000e+00Note: Starting true gmin stepping
Trying gmin =   1.0000E-03 Note: One successful gmin step
Trying gmin =   1.0000E-04 Note: One successful gmin step
Trying gmin =   1.0000E-05 Note: One successful gmin step
Trying gmin =   1.0000E-06 Note: One successful gmin step
Trying gmin =   1.0000E-07 Note: One successful gmin step
Trying gmin =   1.0000E-08 Note: One successful gmin step
Trying gmin =   1.0000E-09 Note: One successful gmin step
Trying gmin =   1.0000E-10 Note: One successful gmin step
Trying gmin =   1.0000E-11 Note: One successful gmin step
Trying gmin =   1.0000E-12 Note: One successful gmin step
Trying gmin =   1.0000E-12 Note: One successful gmin step
Note: True gmin stepping completed
 Reference value :  4.80000e-01pm                  =  1.315770e+02
Doing analysis at TEMP = 85.000000 and TNOM = 27.000000


No. of Data Rows : 91
psrr100             =  -5.277676e+01
psrr100k            =  -2.407033e+01
Doing analysis at TEMP = 85.000000 and TNOM = 27.000000


No. of Data Rows : 86
temp_coeff = 1.802941e+02
Doing analysis at TEMP = 85.000000 and TNOM = 27.000000


No. of Data Rows : 141
vldo_sup_2          =  1.771799e+00
vldo_sup_2_8        =  1.812542e+00
line_reg = 5.092875e-02
Note: No ".plot", ".print", or ".fourier" lines; no simulations run
vin                 =  1.992807e+00
dropout = 2.288070e-01
