 Reference value :  0.00000e+00
No compatibility mode selected!


Circuit: * ldo netlist 

Doing analysis at TEMP = 27.000000 and TNOM = 27.000000


No. of Data Rows : 1
bg_out = 1.195713e+00
inn = 1.228799e+00
inp = 1.228772e+00
l1#branch = 0.000000e+00
ldo_out = 1.797951e+00
m.xm1.msky130_fd_pr__nfet_g5v0d10v5#body = 1.846319e-11
m.xm1.msky130_fd_pr__nfet_g5v0d10v5#dbody = 3.967984e-11
m.xm1.msky130_fd_pr__nfet_g5v0d10v5#sbody = 1.570974e-11
m.xm2.msky130_fd_pr__pfet_g5v0d10v5#body = 2.500000e+00
m.xm2.msky130_fd_pr__pfet_g5v0d10v5#dbody = 2.500000e+00
m.xm2.msky130_fd_pr__pfet_g5v0d10v5#sbody = 2.500000e+00
m.xm3.msky130_fd_pr__pfet_g5v0d10v5#body = 2.500000e+00
m.xm3.msky130_fd_pr__pfet_g5v0d10v5#dbody = 2.500000e+00
m.xm3.msky130_fd_pr__pfet_g5v0d10v5#sbody = 2.500000e+00
m.xm4.msky130_fd_pr__pfet_g5v0d10v5#body = 2.500000e+00
m.xm4.msky130_fd_pr__pfet_g5v0d10v5#dbody = 2.500000e+00
m.xm4.msky130_fd_pr__pfet_g5v0d10v5#sbody = 2.500000e+00
m.xm5.msky130_fd_pr__pfet_g5v0d10v5#body = 2.500000e+00
m.xm5.msky130_fd_pr__pfet_g5v0d10v5#dbody = 2.500000e+00
m.xm5.msky130_fd_pr__pfet_g5v0d10v5#sbody = 2.500000e+00
m.xm6.msky130_fd_pr__nfet_g5v0d10v5#body = 1.218296e-11
m.xm6.msky130_fd_pr__nfet_g5v0d10v5#dbody = 3.045739e-11
m.xm6.msky130_fd_pr__nfet_g5v0d10v5#sbody = 6.091483e-12
m.xm7.msky130_fd_pr__pfet_g5v0d10v5#body = 2.500000e+00
m.xm7.msky130_fd_pr__pfet_g5v0d10v5#dbody = 2.500000e+00
m.xm7.msky130_fd_pr__pfet_g5v0d10v5#sbody = 2.500000e+00
m.xm8.msky130_fd_pr__pfet_g5v0d10v5#body = 2.500000e+00
m.xm8.msky130_fd_pr__pfet_g5v0d10v5#dbody = 2.500000e+00
m.xm8.msky130_fd_pr__pfet_g5v0d10v5#sbody = 2.500000e+00
m.xm9.msky130_fd_pr__nfet_g5v0d10v5#body = 1.912772e-11
m.xm9.msky130_fd_pr__nfet_g5v0d10v5#dbody = 4.231684e-11
m.xm9.msky130_fd_pr__nfet_g5v0d10v5#sbody = 1.506632e-11
m.xm10.msky130_fd_pr__nfet_g5v0d10v5#body = 1.898456e-11
m.xm10.msky130_fd_pr__nfet_g5v0d10v5#dbody = 4.195894e-11
m.xm10.msky130_fd_pr__nfet_g5v0d10v5#sbody = 1.499474e-11
m.xm11.msky130_fd_pr__pfet_g5v0d10v5#body = 2.500000e+00
m.xm11.msky130_fd_pr__pfet_g5v0d10v5#dbody = 2.500000e+00
m.xm11.msky130_fd_pr__pfet_g5v0d10v5#sbody = 2.500000e+00
m.xm12.msky130_fd_pr__pfet_g5v0d10v5#body = 2.500000e+00
m.xm12.msky130_fd_pr__pfet_g5v0d10v5#dbody = 2.500000e+00
m.xm12.msky130_fd_pr__pfet_g5v0d10v5#sbody = 2.500000e+00
m.xm13.msky130_fd_pr__nfet_g5v0d10v5#body = 2.749872e-12
m.xm13.msky130_fd_pr__nfet_g5v0d10v5#dbody = 6.874671e-12
m.xm13.msky130_fd_pr__nfet_g5v0d10v5#sbody = 1.374946e-12
m.xm14.msky130_fd_pr__pfet_g5v0d10v5#body = 2.500000e+00
m.xm14.msky130_fd_pr__pfet_g5v0d10v5#dbody = 2.500000e+00
m.xm14.msky130_fd_pr__pfet_g5v0d10v5#sbody = 2.500000e+00
m.xm15.msky130_fd_pr__nfet_g5v0d10v5#body = 5.446299e-16
m.xm15.msky130_fd_pr__nfet_g5v0d10v5#dbody = 1.361549e-15
m.xm15.msky130_fd_pr__nfet_g5v0d10v5#sbody = 2.723406e-16
m.xm16.msky130_fd_pr__nfet_g5v0d10v5#body = 4.661872e-11
m.xm16.msky130_fd_pr__nfet_g5v0d10v5#dbody = 8.581810e-11
m.xm16.msky130_fd_pr__nfet_g5v0d10v5#sbody = 5.403808e-11
m.xm17.msky130_fd_pr__pfet_g5v0d10v5#body = 2.500000e+00
m.xm17.msky130_fd_pr__pfet_g5v0d10v5#dbody = 2.500000e+00
m.xm17.msky130_fd_pr__pfet_g5v0d10v5#sbody = 2.500000e+00
m.xm18.msky130_fd_pr__nfet_g5v0d10v5#body = 1.136910e-11
m.xm18.msky130_fd_pr__nfet_g5v0d10v5#dbody = 2.842273e-11
m.xm18.msky130_fd_pr__nfet_g5v0d10v5#sbody = 5.684560e-12
m.xm19.msky130_fd_pr__nfet_g5v0d10v5#body = 1.850989e-11
m.xm19.msky130_fd_pr__nfet_g5v0d10v5#dbody = 3.979657e-11
m.xm19.msky130_fd_pr__nfet_g5v0d10v5#sbody = 1.573308e-11
m.xm20.msky130_fd_pr__nfet_g5v0d10v5#body = 1.275213e-11
m.xm20.msky130_fd_pr__nfet_g5v0d10v5#dbody = 3.188031e-11
m.xm20.msky130_fd_pr__nfet_g5v0d10v5#sbody = 6.376076e-12
m.xm22.msky130_fd_pr__nfet_g5v0d10v5#body = 3.241782e-12
m.xm22.msky130_fd_pr__nfet_g5v0d10v5#dbody = 8.104451e-12
m.xm22.msky130_fd_pr__nfet_g5v0d10v5#sbody = 1.620896e-12
m.xm24.msky130_fd_pr__pfet_g5v0d10v5#body = 2.500000e+00
m.xm24.msky130_fd_pr__pfet_g5v0d10v5#dbody = 2.500000e+00
m.xm24.msky130_fd_pr__pfet_g5v0d10v5#sbody = 2.500000e+00
m.xm26.msky130_fd_pr__pfet_g5v0d10v5#body = 2.500000e+00
m.xm26.msky130_fd_pr__pfet_g5v0d10v5#dbody = 2.500000e+00
m.xm26.msky130_fd_pr__pfet_g5v0d10v5#sbody = 2.500000e+00
mir = 1.217581e+00
net1 = 7.306018e-01
net2 = 4.190349e-05
net3 = 7.898532e-01
net4 = 2.587761e-01
net5 = 1.221316e+00
net6 = 9.740700e-01
net7 = 7.898251e-01
net8 = 1.298426e+00
net9 = 1.309879e+00
net10 = 2.198576e-01
net11 = 9.093953e-01
net12 = 9.093953e-01
net13 = 0.000000e+00
out = 9.093953e-01
pos = 1.195815e+00
q.xq2.qsky130_fd_pr__pnp_05v5_w0p68l0p68#collcx = 1.952555e-03
q.xq3.qsky130_fd_pr__pnp_05v5_w0p68l0p68#collcx = 2.474131e-04
q.xq4.qsky130_fd_pr__pnp_05v5_w0p68l0p68#collcx = 2.474131e-04
q.xq8.qsky130_fd_pr__pnp_05v5_w0p68l0p68#collcx = 2.474131e-04
q.xq10.qsky130_fd_pr__pnp_05v5_w0p68l0p68#collcx = 2.474131e-04
q.xq12.qsky130_fd_pr__pnp_05v5_w0p68l0p68#collcx = 2.474131e-04
q.xq14.qsky130_fd_pr__pnp_05v5_w0p68l0p68#collcx = 2.474131e-04
q.xq16.qsky130_fd_pr__pnp_05v5_w0p68l0p68#collcx = 2.474131e-04
q.xq18.qsky130_fd_pr__pnp_05v5_w0p68l0p68#collcx = 2.474131e-04
vb = 1.020038e+00
vdd = 2.500000e+00
vs#branch = -1.00007e-01
vt#branch = 0.000000e+00
xc1.a = 0.000000e+00
xc1.b1 = 0.000000e+00
xc3.a = 9.093953e-01
xc3.b1 = 9.093953e-01
xr1.xsky130_fd_pr__res_xhigh_po_0p69.ra = 7.973930e-01
xr2.xsky130_fd_pr__res_xhigh_po_0p69.ra = 7.974211e-01
xr3.xsky130_fd_pr__res_xhigh_po_0p69.ra = 5.144665e-03
xr4.xsky130_fd_pr__res_xhigh_po_0p69.ra = 7.331264e-01
xr5.xsky130_fd_pr__res_xhigh_po_0p69.ra = 5.144470e-03
xr6.xsky130_fd_pr__res_xhigh_po_0p69.ra = 8.045676e-03
xr7.xsky130_fd_pr__res_xhigh_po_0p69.ra = 9.093953e-01
xr8.xsky130_fd_pr__res_xhigh_po_0p69.ra = 1.209200e+00
xr9.xsky130_fd_pr__res_xhigh_po_0p69.ra = 1.403819e-02
Doing analysis at TEMP = 27.000000 and TNOM = 27.000000


No. of Data Rows : 91
Note: Starting true gmin stepping
Trying gmin =   1.0000E-03 Note: One successful gmin step
Trying gmin =   1.0000E-04 Note: One successful gmin step
Trying gmin =   1.0000E-05 Note: One successful gmin step
Trying gmin =   1.0000E-06 Note: One successful gmin step
Trying gmin =   1.0000E-07 Note: One successful gmin step
Trying gmin =   1.0000E-08 Warning: Further gmin increment
Trying gmin =   5.6234E-08 Warning: Further gmin increment
Trying gmin =   8.6596E-08 Note: One successful gmin step
Trying gmin =   6.9783E-08 Note: One successful gmin step
Trying gmin =   5.0481E-08 Warning: Further gmin increment
Trying gmin =   6.4357E-08 Warning: Further gmin increment
Trying gmin =   6.8385E-08 Note: One successful gmin step
Trying gmin =   6.6340E-08 Note: One successful gmin step
Trying gmin =   6.3387E-08 Warning: Further gmin increment
Trying gmin =   6.5589E-08 Warning: Further gmin increment
Trying gmin =   6.6152E-08 Note: One successful gmin step
Trying gmin =   6.5870E-08 Note: One successful gmin step
Trying gmin =   6.5450E-08 Warning: Further gmin increment
Trying gmin =   6.5765E-08 Note: One successful gmin step
Trying gmin =   6.5607E-08 Warning: Further gmin increment
Trying gmin =   6.5725E-08 Note: One successful gmin step
Trying gmin =   6.5666E-08 Warning: Further gmin increment
Trying gmin =   6.5710E-08 Warning: Further gmin increment
Trying gmin =   6.5721E-08 Note: One successful gmin step
Trying gmin =   6.5716E-08 Warning: Further gmin increment
Trying gmin =   6.5720E-08 Note: One successful gmin step
Trying gmin =   6.5718E-08 Warning: Last gmin step failed
Warning: True gmin stepping failed
Note: Starting dynamic gmin stepping
Trying gmin =   1.0000E-03 Note: One successful gmin step
Trying gmin =   1.0000E-04 Note: One successful gmin step
Trying gmin =   1.0000E-05 Note: One successful gmin step
Trying gmin =   1.0000E-06 Warning: Further gmin increment
Trying gmin =   5.6234E-06 Note: One successful gmin step
Trying gmin =   2.3714E-06 Note: One successful gmin step
Trying gmin =   1.0000E-06 Note: One successful gmin step
Trying gmin =   2.7384E-07 Warning: Further gmin increment
Trying gmin =   7.2339E-07 Note: One successful gmin step
Trying gmin =   4.4508E-07 Note: One successful gmin step
Trying gmin =   2.1480E-07 Warning: Further gmin increment
Trying gmin =   3.7097E-07 Note: One successful gmin step
Trying gmin =   2.8228E-07 Warning: Further gmin increment
Trying gmin =   3.4648E-07 Note: One successful gmin step
Trying gmin =   3.1274E-07 Note: One successful gmin step
Trying gmin =   2.6819E-07 Warning: Further gmin increment
Trying gmin =   3.0095E-07 Warning: Further gmin increment
Trying gmin =   3.0975E-07 Note: One successful gmin step
Trying gmin =   3.0532E-07 Warning: Further gmin increment
Trying gmin =   3.0863E-07 Note: One successful gmin step
Trying gmin =   3.0697E-07 Note: One successful gmin step
Trying gmin =   3.0449E-07 Warning: Further gmin increment
Trying gmin =   3.0635E-07 Warning: Further gmin increment
Trying gmin =   3.0681E-07 Note: One successful gmin step
Trying gmin =   3.0658E-07 Note: One successful gmin step
Trying gmin =   3.0623E-07 Warning: Further gmin increment
Trying gmin =   3.0649E-07 Warning: Further gmin increment
Trying gmin =   3.0656E-07 Warning: Further gmin increment
Trying gmin =   3.0658E-07 Note: One successful gmin step
Trying gmin =   3.0657E-07 Note: One successful gmin step
Trying gmin =   3.0656E-07 Warning: Last gmin step failed
Warning: Dynamic gmin stepping failed
Note: Starting source stepping
Supplies reduced to   0.0000% Note: One successful source step
Supplies reduced to   0.1000% Note: One successful source step
Supplies reduced to   0.2000% Note: One successful source step
Supplies reduced to   0.3500% Note: One successful source step
Supplies reduced to   0.5750% Note: One successful source step
Supplies reduced to   0.9125% Note: One successful source step
Supplies reduced to   1.4188% Note: One successful source step
Supplies reduced to   2.1781% Note: One successful source step
Supplies reduced to   3.3172% Note: One successful source step
Supplies reduced to   5.0258% Note: One successful source step
Supplies reduced to   7.5887% Note: One successful source step
Supplies reduced to  11.4330% Note: One successful source step
Supplies reduced to  17.1995% Note: One successful source step
Supplies reduced to  25.8493% Note: One successful source step
Supplies reduced to  38.8239% Note: One successful source step
Supplies reduced to  51.7985% Note: One successful source step
Supplies reduced to  64.7732% Supplies reduced to  51.7985% Note: One successful source step
Supplies reduced to  52.4473% Note: One successful source step
Supplies reduced to  53.4204% Note: One successful source step
Supplies reduced to  54.8800% Note: One successful source step
Supplies reduced to  57.0695% Note: One successful source step
Supplies reduced to  60.3537% Note: One successful source step
Supplies reduced to  65.2800% Note: One successful source step
Supplies reduced to  72.6694% Supplies reduced to  65.2800% Note: One successful source step
Supplies reduced to  66.2800% Note: One successful source step
Supplies reduced to  67.7800% Note: One successful source step
Supplies reduced to  70.0300% Note: One successful source step
Supplies reduced to  73.4050% Supplies reduced to  70.0300% Note: One successful source step
Supplies reduced to  70.5362% Note: One successful source step
Supplies reduced to  71.2956% Note: One successful source step
Supplies reduced to  72.4347% Supplies reduced to  71.2956% Note: One successful source step
Supplies reduced to  71.4665% Note: One successful source step
Supplies reduced to  71.7228% Note: One successful source step
Supplies reduced to  72.1072% Note: One successful source step
Supplies reduced to  72.6838% Note: One successful source step
Supplies reduced to  73.5488% Note: One successful source step
Supplies reduced to  74.8463% Note: One successful source step
Supplies reduced to  76.7925% Note: One successful source step
Supplies reduced to  79.7118% Note: One successful source step
Supplies reduced to  84.0907% Note: One successful source step
Supplies reduced to  90.6591% Note: One successful source step
Supplies reduced to 100.0000% Note: One successful source step
Note: Source stepping completed
 Reference value :  2.80000e+00Note: Starting true gmin stepping
Trying gmin =   1.0000E-03 Note: One successful gmin step
Trying gmin =   1.0000E-04 Note: One successful gmin step
Trying gmin =   1.0000E-05 Note: One successful gmin step
Trying gmin =   1.0000E-06 Note: One successful gmin step
Trying gmin =   1.0000E-07 Note: One successful gmin step
Trying gmin =   1.0000E-08 Note: One successful gmin step
Trying gmin =   1.0000E-09 Note: One successful gmin step
Trying gmin =   1.0000E-10 Warning: Further gmin increment
Trying gmin =   5.6234E-10 Note: One successful gmin step
Trying gmin =   2.3714E-10 Note: One successful gmin step
Trying gmin =   1.0000E-10 Note: One successful gmin step
Trying gmin =   2.7384E-11 Note: One successful gmin step
Trying gmin =   3.9242E-12 Note: One successful gmin step
Trying gmin =   1.0000E-12 Note: One successful gmin step
Note: True gmin stepping completed
Note: Starting true gmin stepping
Trying gmin =   1.0000E-03 Note: One successful gmin step
Trying gmin =   1.0000E-04 Note: One successful gmin step
Trying gmin =   1.0000E-05 Note: One successful gmin step
Trying gmin =   1.0000E-06 Note: One successful gmin step
Trying gmin =   1.0000E-07 Note: One successful gmin step
Trying gmin =   1.0000E-08 Note: One successful gmin step
Trying gmin =   1.0000E-09 Note: One successful gmin step
Trying gmin =   1.0000E-10 Warning: Further gmin increment
Trying gmin =   5.6234E-10 Note: One successful gmin step
Trying gmin =   3.1623E-10 Note: One successful gmin step
Trying gmin =   1.3335E-10 Warning: Further gmin increment
Trying gmin =   2.5483E-10 Note: One successful gmin step
Trying gmin =   1.8434E-10 Warning: Further gmin increment
Trying gmin =   2.3501E-10 Note: One successful gmin step
Trying gmin =   2.0814E-10 Note: One successful gmin step
Trying gmin =   1.7348E-10 Note: One successful gmin step
Trying gmin =   1.3201E-10 Note: One successful gmin step
Trying gmin =   8.7625E-11 Note: One successful gmin step
Trying gmin =   4.7387E-11 Note: One successful gmin step
Trying gmin =   1.8845E-11 Note: One successful gmin step
Trying gmin =   4.7264E-12 Note: One successful gmin step
Trying gmin =   1.0000E-12 Note: One successful gmin step
Note: True gmin stepping completed
 Reference value :  1.30000e+00pm                  =  5.596658e+01
Doing analysis at TEMP = 27.000000 and TNOM = 27.000000


No. of Data Rows : 91
psrr100             =  -7.736328e+01
psrr100k            =  -2.433909e+01
Doing analysis at TEMP = 27.000000 and TNOM = 27.000000


No. of Data Rows : 86
temp_coeff = 1.257081e+02
Doing analysis at TEMP = 27.000000 and TNOM = 27.000000


No. of Data Rows : 141
vldo_sup_2          =  1.795354e+00
vldo_sup_2_8        =  1.797978e+00
line_reg = 3.280000e-03
Note: No ".plot", ".print", or ".fourier" lines; no simulations run
vin                 =  1.968088e+00
dropout = 2.040880e-01
