 Reference value :  0.00000e+00
No compatibility mode selected!


Circuit: * ldo netlist 

Doing analysis at TEMP = 27.000000 and TNOM = 27.000000


No. of Data Rows : 1
bg_out = 1.195701e+00
inn = 1.227383e+00
inp = 1.227346e+00
l1#branch = 0.000000e+00
ldo_out = 1.799237e+00
m.xm1.msky130_fd_pr__nfet_g5v0d10v5#body = 1.760625e-11
m.xm1.msky130_fd_pr__nfet_g5v0d10v5#dbody = 3.800238e-11
m.xm1.msky130_fd_pr__nfet_g5v0d10v5#sbody = 1.481637e-11
m.xm2.msky130_fd_pr__pfet_g5v0d10v5#body = 2.300000e+00
m.xm2.msky130_fd_pr__pfet_g5v0d10v5#dbody = 2.300000e+00
m.xm2.msky130_fd_pr__pfet_g5v0d10v5#sbody = 2.300000e+00
m.xm3.msky130_fd_pr__pfet_g5v0d10v5#body = 2.300000e+00
m.xm3.msky130_fd_pr__pfet_g5v0d10v5#dbody = 2.300000e+00
m.xm3.msky130_fd_pr__pfet_g5v0d10v5#sbody = 2.300000e+00
m.xm4.msky130_fd_pr__pfet_g5v0d10v5#body = 2.300000e+00
m.xm4.msky130_fd_pr__pfet_g5v0d10v5#dbody = 2.300000e+00
m.xm4.msky130_fd_pr__pfet_g5v0d10v5#sbody = 2.300000e+00
m.xm5.msky130_fd_pr__pfet_g5v0d10v5#body = 2.300000e+00
m.xm5.msky130_fd_pr__pfet_g5v0d10v5#dbody = 2.300000e+00
m.xm5.msky130_fd_pr__pfet_g5v0d10v5#sbody = 2.300000e+00
m.xm6.msky130_fd_pr__nfet_g5v0d10v5#body = 1.246140e-11
m.xm6.msky130_fd_pr__nfet_g5v0d10v5#dbody = 3.115350e-11
m.xm6.msky130_fd_pr__nfet_g5v0d10v5#sbody = 6.230706e-12
m.xm7.msky130_fd_pr__pfet_g5v0d10v5#body = 2.300000e+00
m.xm7.msky130_fd_pr__pfet_g5v0d10v5#dbody = 2.300000e+00
m.xm7.msky130_fd_pr__pfet_g5v0d10v5#sbody = 2.300000e+00
m.xm8.msky130_fd_pr__pfet_g5v0d10v5#body = 2.300000e+00
m.xm8.msky130_fd_pr__pfet_g5v0d10v5#dbody = 2.300000e+00
m.xm8.msky130_fd_pr__pfet_g5v0d10v5#sbody = 2.300000e+00
m.xm9.msky130_fd_pr__nfet_g5v0d10v5#body = 1.830828e-11
m.xm9.msky130_fd_pr__nfet_g5v0d10v5#dbody = 4.070646e-11
m.xm9.msky130_fd_pr__nfet_g5v0d10v5#sbody = 1.421838e-11
m.xm10.msky130_fd_pr__nfet_g5v0d10v5#body = 1.814533e-11
m.xm10.msky130_fd_pr__nfet_g5v0d10v5#dbody = 4.029910e-11
m.xm10.msky130_fd_pr__nfet_g5v0d10v5#sbody = 1.413690e-11
m.xm11.msky130_fd_pr__pfet_g5v0d10v5#body = 2.300000e+00
m.xm11.msky130_fd_pr__pfet_g5v0d10v5#dbody = 2.300000e+00
m.xm11.msky130_fd_pr__pfet_g5v0d10v5#sbody = 2.300000e+00
m.xm12.msky130_fd_pr__pfet_g5v0d10v5#body = 2.300000e+00
m.xm12.msky130_fd_pr__pfet_g5v0d10v5#dbody = 2.300000e+00
m.xm12.msky130_fd_pr__pfet_g5v0d10v5#sbody = 2.300000e+00
m.xm13.msky130_fd_pr__nfet_g5v0d10v5#body = 2.530761e-12
m.xm13.msky130_fd_pr__nfet_g5v0d10v5#dbody = 6.326891e-12
m.xm13.msky130_fd_pr__nfet_g5v0d10v5#sbody = 1.265391e-12
m.xm14.msky130_fd_pr__pfet_g5v0d10v5#body = 2.300000e+00
m.xm14.msky130_fd_pr__pfet_g5v0d10v5#dbody = 2.300000e+00
m.xm14.msky130_fd_pr__pfet_g5v0d10v5#sbody = 2.300000e+00
m.xm15.msky130_fd_pr__nfet_g5v0d10v5#body = 5.917712e-16
m.xm15.msky130_fd_pr__nfet_g5v0d10v5#dbody = 1.479404e-15
m.xm15.msky130_fd_pr__nfet_g5v0d10v5#sbody = 2.959099e-16
m.xm16.msky130_fd_pr__nfet_g5v0d10v5#body = 4.410104e-11
m.xm16.msky130_fd_pr__nfet_g5v0d10v5#dbody = 7.955927e-11
m.xm16.msky130_fd_pr__nfet_g5v0d10v5#sbody = 5.274385e-11
m.xm17.msky130_fd_pr__pfet_g5v0d10v5#body = 2.300000e+00
m.xm17.msky130_fd_pr__pfet_g5v0d10v5#dbody = 2.300000e+00
m.xm17.msky130_fd_pr__pfet_g5v0d10v5#sbody = 2.300000e+00
m.xm18.msky130_fd_pr__nfet_g5v0d10v5#body = 1.176783e-11
m.xm18.msky130_fd_pr__nfet_g5v0d10v5#dbody = 2.941957e-11
m.xm18.msky130_fd_pr__nfet_g5v0d10v5#sbody = 5.883929e-12
m.xm19.msky130_fd_pr__nfet_g5v0d10v5#body = 1.766651e-11
m.xm19.msky130_fd_pr__nfet_g5v0d10v5#dbody = 3.815303e-11
m.xm19.msky130_fd_pr__nfet_g5v0d10v5#sbody = 1.484650e-11
m.xm20.msky130_fd_pr__nfet_g5v0d10v5#body = 1.309538e-11
m.xm20.msky130_fd_pr__nfet_g5v0d10v5#dbody = 3.273845e-11
m.xm20.msky130_fd_pr__nfet_g5v0d10v5#sbody = 6.547705e-12
m.xm22.msky130_fd_pr__nfet_g5v0d10v5#body = 3.009333e-12
m.xm22.msky130_fd_pr__nfet_g5v0d10v5#dbody = 7.523327e-12
m.xm22.msky130_fd_pr__nfet_g5v0d10v5#sbody = 1.504671e-12
m.xm24.msky130_fd_pr__pfet_g5v0d10v5#body = 2.300000e+00
m.xm24.msky130_fd_pr__pfet_g5v0d10v5#dbody = 2.300000e+00
m.xm24.msky130_fd_pr__pfet_g5v0d10v5#sbody = 2.300000e+00
m.xm26.msky130_fd_pr__pfet_g5v0d10v5#body = 2.300000e+00
m.xm26.msky130_fd_pr__pfet_g5v0d10v5#dbody = 2.300000e+00
m.xm26.msky130_fd_pr__pfet_g5v0d10v5#sbody = 2.300000e+00
mir = 1.167620e+00
net1 = 7.274528e-01
net2 = 4.552947e-05
net3 = 7.873166e-01
net4 = 2.401795e-01
net5 = 1.172441e+00
net6 = 9.963449e-01
net7 = 7.872783e-01
net8 = 1.248816e+00
net9 = 1.261851e+00
net10 = 2.023279e-01
net11 = 9.412935e-01
net12 = 9.412935e-01
net13 = 0.000000e+00
out = 9.412935e-01
pos = 1.195827e+00
q.xq2.qsky130_fd_pr__pnp_05v5_w0p68l0p68#collcx = 2.277189e-03
q.xq3.qsky130_fd_pr__pnp_05v5_w0p68l0p68#collcx = 2.869869e-04
q.xq4.qsky130_fd_pr__pnp_05v5_w0p68l0p68#collcx = 2.869869e-04
q.xq8.qsky130_fd_pr__pnp_05v5_w0p68l0p68#collcx = 2.869869e-04
q.xq10.qsky130_fd_pr__pnp_05v5_w0p68l0p68#collcx = 2.869869e-04
q.xq12.qsky130_fd_pr__pnp_05v5_w0p68l0p68#collcx = 2.869869e-04
q.xq14.qsky130_fd_pr__pnp_05v5_w0p68l0p68#collcx = 2.869869e-04
q.xq16.qsky130_fd_pr__pnp_05v5_w0p68l0p68#collcx = 2.869869e-04
q.xq18.qsky130_fd_pr__pnp_05v5_w0p68l0p68#collcx = 2.869869e-04
vb = 1.047498e+00
vdd = 2.300000e+00
vs#branch = -1.00088e-01
vt#branch = 0.000000e+00
xc1.a = 0.000000e+00
xc1.b1 = 0.000000e+00
xc3.a = 9.412935e-01
xc3.b1 = 9.412935e-01
xr1.xsky130_fd_pr__res_xhigh_po_0p69.ra = 7.901816e-01
xr2.xsky130_fd_pr__res_xhigh_po_0p69.ra = 7.902198e-01
xr3.xsky130_fd_pr__res_xhigh_po_0p69.ra = 1.966647e-03
xr4.xsky130_fd_pr__res_xhigh_po_0p69.ra = 7.284275e-01
xr5.xsky130_fd_pr__res_xhigh_po_0p69.ra = 1.966545e-03
xr6.xsky130_fd_pr__res_xhigh_po_0p69.ra = 3.086558e-03
xr7.xsky130_fd_pr__res_xhigh_po_0p69.ra = 9.412935e-01
xr8.xsky130_fd_pr__res_xhigh_po_0p69.ra = 1.200957e+00
xr9.xsky130_fd_pr__res_xhigh_po_0p69.ra = 5.380109e-03
Doing analysis at TEMP = 27.000000 and TNOM = 27.000000


No. of Data Rows : 91
Note: Starting true gmin stepping
Trying gmin =   1.0000E-03 Note: One successful gmin step
Trying gmin =   1.0000E-04 Note: One successful gmin step
Trying gmin =   1.0000E-05 Note: One successful gmin step
Trying gmin =   1.0000E-06 Warning: Further gmin increment
Trying gmin =   5.6234E-06 Note: One successful gmin step
Trying gmin =   2.3714E-06 Note: One successful gmin step
Trying gmin =   6.4938E-07 Warning: Further gmin increment
Trying gmin =   1.7154E-06 Note: One successful gmin step
Trying gmin =   1.0554E-06 Note: One successful gmin step
Trying gmin =   5.0937E-07 Note: One successful gmin step
Trying gmin =   1.7077E-07 Note: One successful gmin step
Trying gmin =   3.3152E-08 Warning: Further gmin increment
Trying gmin =   1.1336E-07 Warning: Further gmin increment
Trying gmin =   1.5414E-07 Note: One successful gmin step
Trying gmin =   1.3219E-07 Note: One successful gmin step
Trying gmin =   1.1336E-07 Note: One successful gmin step
Trying gmin =   9.0018E-08 Note: One successful gmin step
Trying gmin =   6.3703E-08 Note: One successful gmin step
Trying gmin =   3.7923E-08 Note: One successful gmin step
Trying gmin =   1.7419E-08 Note: One successful gmin step
Trying gmin =   5.4226E-09 Note: One successful gmin step
Trying gmin =   9.4183E-10 Note: One successful gmin step
Trying gmin =   9.4183E-11 Note: One successful gmin step
Trying gmin =   9.4183E-12 Note: One successful gmin step
Trying gmin =   1.0000E-12 Note: One successful gmin step
Note: True gmin stepping completed
 Reference value :  2.80000e+00Note: Starting true gmin stepping
Trying gmin =   1.0000E-03 Note: One successful gmin step
Trying gmin =   1.0000E-04 Note: One successful gmin step
Trying gmin =   1.0000E-05 Note: One successful gmin step
Trying gmin =   1.0000E-06 Note: One successful gmin step
Trying gmin =   1.0000E-07 Note: One successful gmin step
Trying gmin =   1.0000E-08 Note: One successful gmin step
Trying gmin =   3.1623E-09 Note: One successful gmin step
Trying gmin =   5.6234E-10 Note: One successful gmin step
Trying gmin =   5.6234E-11 Warning: Further gmin increment
Trying gmin =   3.1623E-10 Note: One successful gmin step
Trying gmin =   1.3335E-10 Note: One successful gmin step
Trying gmin =   3.6517E-11 Note: One successful gmin step
Trying gmin =   1.0000E-11 Note: One successful gmin step
Trying gmin =   1.4330E-12 Note: One successful gmin step
Trying gmin =   1.0000E-12 Note: One successful gmin step
Note: True gmin stepping completed
Note: Starting true gmin stepping
Trying gmin =   1.0000E-03 Note: One successful gmin step
Trying gmin =   1.0000E-04 Note: One successful gmin step
Trying gmin =   1.0000E-05 Note: One successful gmin step
Trying gmin =   1.0000E-06 Note: One successful gmin step
Trying gmin =   1.0000E-07 Note: One successful gmin step
Trying gmin =   1.0000E-08 Note: One successful gmin step
Trying gmin =   3.1623E-09 Note: One successful gmin step
Trying gmin =   5.6234E-10 Note: One successful gmin step
Trying gmin =   5.6234E-11 Note: One successful gmin step
Trying gmin =   1.7783E-11 Note: One successful gmin step
Trying gmin =   3.1623E-12 Warning: Further gmin increment
Trying gmin =   1.1548E-11 Warning: Further gmin increment
Trying gmin =   1.5963E-11 Note: One successful gmin step
Trying gmin =   1.3577E-11 Note: One successful gmin step
Trying gmin =   1.0650E-11 Warning: Further gmin increment
Trying gmin =   1.2777E-11 Note: One successful gmin step
Trying gmin =   1.2025E-11 Note: One successful gmin step
Trying gmin =   1.0978E-11 Note: One successful gmin step
Trying gmin =   9.5764E-12 Note: One successful gmin step
Trying gmin =   7.8021E-12 Note: One successful gmin step
Trying gmin =   5.7376E-12 Note: One successful gmin step
Trying gmin =   3.6183E-12 Note: One successful gmin step
Trying gmin =   1.8120E-12 Note: One successful gmin step
Trying gmin =   1.0000E-12 Note: One successful gmin step
Note: True gmin stepping completed
 Reference value :  1.14000e+00pm                  =  8.388570e+01
Doing analysis at TEMP = 27.000000 and TNOM = 27.000000


No. of Data Rows : 91
psrr100             =  -8.608628e+01
psrr100k            =  -2.639078e+01
Doing analysis at TEMP = 27.000000 and TNOM = 27.000000


No. of Data Rows : 86
temp_coeff = 1.624866e+02
Doing analysis at TEMP = 27.000000 and TNOM = 27.000000


No. of Data Rows : 141
vldo_sup_2          =  1.799150e+00
vldo_sup_2_8        =  1.799250e+00
line_reg = 1.250000e-04
Note: No ".plot", ".print", or ".fourier" lines; no simulations run
vin                 =  1.901644e+00
dropout = 1.376440e-01
