 Reference value :  8.00000e+01Note: Starting true gmin stepping
Trying gmin =   1.0000E-03 Note: One successful gmin step
Trying gmin =   1.0000E-04 Note: One successful gmin step
Trying gmin =   1.0000E-05 Note: One successful gmin step
Trying gmin =   1.0000E-06 Note: One successful gmin step
Trying gmin =   1.0000E-07 Note: One successful gmin step
Trying gmin =   1.0000E-08 Note: One successful gmin step
Trying gmin =   1.0000E-09 Warning: Further gmin increment
Trying gmin =   5.6234E-09 Note: One successful gmin step
Trying gmin =   2.3714E-09 Note: One successful gmin step
Trying gmin =   1.5399E-09 Warning: Further gmin increment
Trying gmin =   2.1288E-09 Note: One successful gmin step
Trying gmin =   1.8106E-09 Warning: Further gmin increment
Trying gmin =   2.0443E-09 Note: One successful gmin step
Trying gmin =   1.9239E-09 Note: One successful gmin step
Trying gmin =   1.7564E-09 Note: One successful gmin step
Trying gmin =   1.5322E-09 Note: One successful gmin step
Trying gmin =   1.2483E-09 Note: One successful gmin step
Trying gmin =   9.1797E-10 Note: One successful gmin step
Trying gmin =   5.7890E-10 Note: One successful gmin step
Trying gmin =   2.8991E-10 Note: One successful gmin step
Trying gmin =   1.0274E-10 Note: One successful gmin step
Trying gmin =   2.1677E-11 Note: One successful gmin step
Trying gmin =   2.1677E-12 Note: One successful gmin step
Trying gmin =   1.0000E-12 Note: One successful gmin step
Note: True gmin stepping completed
 Reference value :  1.26000e+00Note: Starting true gmin stepping
Trying gmin =   1.0000E-03 Note: One successful gmin step
Trying gmin =   1.0000E-04 Note: One successful gmin step
Trying gmin =   1.0000E-05 Note: One successful gmin step
Trying gmin =   1.0000E-06 Note: One successful gmin step
Trying gmin =   1.0000E-07 Note: One successful gmin step
Trying gmin =   1.0000E-08 Note: One successful gmin step
Trying gmin =   1.0000E-09 Note: One successful gmin step
Trying gmin =   1.0000E-10 Note: One successful gmin step
Trying gmin =   1.0000E-11 Note: One successful gmin step
Trying gmin =   1.0000E-12 Note: One successful gmin step
Trying gmin =   1.0000E-12 Note: One successful gmin step
Note: True gmin stepping completed
 Reference value :  5.00000e-01
No compatibility mode selected!


Circuit: * ldo netlist 

Doing analysis at TEMP = 85.000000 and TNOM = 27.000000


No. of Data Rows : 81
temp_coeff = 2.487766e+02
Doing analysis at TEMP = 85.000000 and TNOM = 27.000000


No. of Data Rows : 151
vldo_sup_2          =  1.779844e+00
vldo_sup_3          =  1.803255e+00
line_reg = 2.341100e-02
Note: No ".plot", ".print", or ".fourier" lines; no simulations run
vin                 =  1.985224e+00
dropout = 2.212240e-01
Doing analysis at TEMP = 85.000000 and TNOM = 27.000000


No. of Data Rows : 91
psrr100             =  5.900414e-01
psrr100k            =  9.509784e-01
