 Reference value :  0.00000e+00
No compatibility mode selected!


Circuit: * ldo netlist 

Doing analysis at TEMP = 85.000000 and TNOM = 27.000000


No. of Data Rows : 1
bg_out = 1.203647e+00
inn = 1.150054e+00
inp = 1.150027e+00
l1#branch = -1.73472e-18
ldo_out = 1.811271e+00
m.xm1.msky130_fd_pr__nfet_g5v0d10v5#body = 2.768572e-11
m.xm1.msky130_fd_pr__nfet_g5v0d10v5#dbody = 5.044947e-11
m.xm1.msky130_fd_pr__nfet_g5v0d10v5#sbody = 3.260768e-11
m.xm2.msky130_fd_pr__pfet_g5v0d10v5#body = 2.300000e+00
m.xm2.msky130_fd_pr__pfet_g5v0d10v5#dbody = 2.300000e+00
m.xm2.msky130_fd_pr__pfet_g5v0d10v5#sbody = 2.300000e+00
m.xm3.msky130_fd_pr__pfet_g5v0d10v5#body = 2.300000e+00
m.xm3.msky130_fd_pr__pfet_g5v0d10v5#dbody = 2.300000e+00
m.xm3.msky130_fd_pr__pfet_g5v0d10v5#sbody = 2.300000e+00
m.xm4.msky130_fd_pr__pfet_g5v0d10v5#body = 2.300000e+00
m.xm4.msky130_fd_pr__pfet_g5v0d10v5#dbody = 2.300000e+00
m.xm4.msky130_fd_pr__pfet_g5v0d10v5#sbody = 2.300000e+00
m.xm5.msky130_fd_pr__pfet_g5v0d10v5#body = 2.300000e+00
m.xm5.msky130_fd_pr__pfet_g5v0d10v5#dbody = 2.300000e+00
m.xm5.msky130_fd_pr__pfet_g5v0d10v5#sbody = 2.300000e+00
m.xm6.msky130_fd_pr__nfet_g5v0d10v5#body = 1.916256e-11
m.xm6.msky130_fd_pr__nfet_g5v0d10v5#dbody = 4.790628e-11
m.xm6.msky130_fd_pr__nfet_g5v0d10v5#sbody = 9.581397e-12
m.xm7.msky130_fd_pr__pfet_g5v0d10v5#body = 2.300000e+00
m.xm7.msky130_fd_pr__pfet_g5v0d10v5#dbody = 2.300000e+00
m.xm7.msky130_fd_pr__pfet_g5v0d10v5#sbody = 2.300000e+00
m.xm8.msky130_fd_pr__pfet_g5v0d10v5#body = 2.300000e+00
m.xm8.msky130_fd_pr__pfet_g5v0d10v5#dbody = 2.300000e+00
m.xm8.msky130_fd_pr__pfet_g5v0d10v5#sbody = 2.300000e+00
m.xm9.msky130_fd_pr__nfet_g5v0d10v5#body = 2.596277e-11
m.xm9.msky130_fd_pr__nfet_g5v0d10v5#dbody = 4.881066e-11
m.xm9.msky130_fd_pr__nfet_g5v0d10v5#sbody = 2.907765e-11
m.xm10.msky130_fd_pr__nfet_g5v0d10v5#body = 2.591816e-11
m.xm10.msky130_fd_pr__nfet_g5v0d10v5#dbody = 4.869913e-11
m.xm10.msky130_fd_pr__nfet_g5v0d10v5#sbody = 2.905535e-11
m.xm11.msky130_fd_pr__pfet_g5v0d10v5#body = 2.300000e+00
m.xm11.msky130_fd_pr__pfet_g5v0d10v5#dbody = 2.300000e+00
m.xm11.msky130_fd_pr__pfet_g5v0d10v5#sbody = 2.300000e+00
m.xm12.msky130_fd_pr__pfet_g5v0d10v5#body = 2.300000e+00
m.xm12.msky130_fd_pr__pfet_g5v0d10v5#dbody = 2.300000e+00
m.xm12.msky130_fd_pr__pfet_g5v0d10v5#sbody = 2.300000e+00
m.xm13.msky130_fd_pr__nfet_g5v0d10v5#body = 6.400424e-12
m.xm13.msky130_fd_pr__nfet_g5v0d10v5#dbody = 1.600099e-11
m.xm13.msky130_fd_pr__nfet_g5v0d10v5#sbody = 3.200284e-12
m.xm14.msky130_fd_pr__pfet_g5v0d10v5#body = 2.300000e+00
m.xm14.msky130_fd_pr__pfet_g5v0d10v5#dbody = 2.300000e+00
m.xm14.msky130_fd_pr__pfet_g5v0d10v5#sbody = 2.300000e+00
m.xm15.msky130_fd_pr__nfet_g5v0d10v5#body = 4.072394e-15
m.xm15.msky130_fd_pr__nfet_g5v0d10v5#dbody = 1.018064e-14
m.xm15.msky130_fd_pr__nfet_g5v0d10v5#sbody = 2.036546e-15
m.xm16.msky130_fd_pr__nfet_g5v0d10v5#body = 5.360604e-11
m.xm16.msky130_fd_pr__nfet_g5v0d10v5#dbody = 9.478339e-11
m.xm16.msky130_fd_pr__nfet_g5v0d10v5#sbody = 6.603474e-11
m.xm17.msky130_fd_pr__pfet_g5v0d10v5#body = 2.300000e+00
m.xm17.msky130_fd_pr__pfet_g5v0d10v5#dbody = 2.300000e+00
m.xm17.msky130_fd_pr__pfet_g5v0d10v5#sbody = 2.300000e+00
m.xm18.msky130_fd_pr__nfet_g5v0d10v5#body = 1.026226e-11
m.xm18.msky130_fd_pr__nfet_g5v0d10v5#dbody = 2.565557e-11
m.xm18.msky130_fd_pr__nfet_g5v0d10v5#sbody = 5.131206e-12
m.xm19.msky130_fd_pr__nfet_g5v0d10v5#body = 2.772008e-11
m.xm19.msky130_fd_pr__nfet_g5v0d10v5#dbody = 5.053537e-11
m.xm19.msky130_fd_pr__nfet_g5v0d10v5#sbody = 3.262486e-11
m.xm20.msky130_fd_pr__nfet_g5v0d10v5#body = 1.243599e-11
m.xm20.msky130_fd_pr__nfet_g5v0d10v5#dbody = 3.108990e-11
m.xm20.msky130_fd_pr__nfet_g5v0d10v5#sbody = 6.218073e-12
m.xm22.msky130_fd_pr__nfet_g5v0d10v5#body = 1.267786e-11
m.xm22.msky130_fd_pr__nfet_g5v0d10v5#dbody = 3.169453e-11
m.xm22.msky130_fd_pr__nfet_g5v0d10v5#sbody = 6.339043e-12
m.xm24.msky130_fd_pr__pfet_g5v0d10v5#body = 2.300000e+00
m.xm24.msky130_fd_pr__pfet_g5v0d10v5#dbody = 2.300000e+00
m.xm24.msky130_fd_pr__pfet_g5v0d10v5#sbody = 2.300000e+00
m.xm26.msky130_fd_pr__pfet_g5v0d10v5#body = 2.300000e+00
m.xm26.msky130_fd_pr__pfet_g5v0d10v5#dbody = 2.300000e+00
m.xm26.msky130_fd_pr__pfet_g5v0d10v5#sbody = 2.300000e+00
mir = 1.045050e+00
net1 = 6.314109e-01
net2 = 7.877367e-06
net3 = 7.052468e-01
net4 = 3.313974e-01
net5 = 1.047799e+00
net6 = 8.501416e-01
net7 = 7.052190e-01
net8 = 1.142209e+00
net9 = 1.145778e+00
net10 = 3.564639e-01
net11 = 6.654071e-01
net12 = 6.654071e-01
net13 = 0.000000e+00
out = 6.654071e-01
pos = 1.203691e+00
q.xq2.qsky130_fd_pr__pnp_05v5_w0p68l0p68#collcx = 3.102113e-03
q.xq3.qsky130_fd_pr__pnp_05v5_w0p68l0p68#collcx = 3.916810e-04
q.xq4.qsky130_fd_pr__pnp_05v5_w0p68l0p68#collcx = 3.916810e-04
q.xq8.qsky130_fd_pr__pnp_05v5_w0p68l0p68#collcx = 3.916810e-04
q.xq10.qsky130_fd_pr__pnp_05v5_w0p68l0p68#collcx = 3.916810e-04
q.xq12.qsky130_fd_pr__pnp_05v5_w0p68l0p68#collcx = 3.916810e-04
q.xq14.qsky130_fd_pr__pnp_05v5_w0p68l0p68#collcx = 3.916810e-04
q.xq16.qsky130_fd_pr__pnp_05v5_w0p68l0p68#collcx = 3.916810e-04
q.xq18.qsky130_fd_pr__pnp_05v5_w0p68l0p68#collcx = 3.916810e-04
vb = 8.393055e-01
vdd = 2.300000e+00
vs#branch = -1.00770e-01
vt#branch = 0.000000e+00
xc1.a = 0.000000e+00
xc1.b1 = 0.000000e+00
xc3.a = 6.654071e-01
xc3.b1 = 6.654071e-01
xr1.xsky130_fd_pr__res_xhigh_po_0p69.ra = 7.083948e-01
xr2.xsky130_fd_pr__res_xhigh_po_0p69.ra = 7.084226e-01
xr3.xsky130_fd_pr__res_xhigh_po_0p69.ra = 1.893516e-03
xr4.xsky130_fd_pr__res_xhigh_po_0p69.ra = 6.327108e-01
xr5.xsky130_fd_pr__res_xhigh_po_0p69.ra = 1.893437e-03
xr6.xsky130_fd_pr__res_xhigh_po_0p69.ra = 3.364552e-03
xr7.xsky130_fd_pr__res_xhigh_po_0p69.ra = 6.654071e-01
xr8.xsky130_fd_pr__res_xhigh_po_0p69.ra = 1.209280e+00
xr9.xsky130_fd_pr__res_xhigh_po_0p69.ra = 5.863298e-03
Doing analysis at TEMP = 85.000000 and TNOM = 27.000000


No. of Data Rows : 91
Note: Starting true gmin stepping
Trying gmin =   1.0000E-03 Note: One successful gmin step
Trying gmin =   1.0000E-04 Note: One successful gmin step
Trying gmin =   1.0000E-05 Note: One successful gmin step
Trying gmin =   1.0000E-06 Note: One successful gmin step
Trying gmin =   1.0000E-07 Note: One successful gmin step
Trying gmin =   1.0000E-08 Note: One successful gmin step
Trying gmin =   3.1623E-09 Note: One successful gmin step
Trying gmin =   5.6234E-10 Note: One successful gmin step
Trying gmin =   5.6234E-11 Note: One successful gmin step
Trying gmin =   5.6234E-12 Note: One successful gmin step
Trying gmin =   1.0000E-12 Note: One successful gmin step
Note: True gmin stepping completed
 Reference value :  1.26000e+00Note: Starting true gmin stepping
Trying gmin =   1.0000E-03 Note: One successful gmin step
Trying gmin =   1.0000E-04 Note: One successful gmin step
Trying gmin =   1.0000E-05 Note: One successful gmin step
Trying gmin =   1.0000E-06 Note: One successful gmin step
Trying gmin =   1.0000E-07 Note: One successful gmin step
Trying gmin =   1.0000E-08 Note: One successful gmin step
Trying gmin =   1.0000E-09 Note: One successful gmin step
Trying gmin =   1.0000E-10 Note: One successful gmin step
Trying gmin =   1.0000E-11 Note: One successful gmin step
Trying gmin =   1.0000E-12 Note: One successful gmin step
Trying gmin =   1.0000E-12 Note: One successful gmin step
Note: True gmin stepping completed
pm                  =  1.246199e+02
Doing analysis at TEMP = 85.000000 and TNOM = 27.000000


No. of Data Rows : 91
psrr100             =  -4.920136e+01
psrr100k            =  -2.442458e+01
Doing analysis at TEMP = 85.000000 and TNOM = 27.000000


No. of Data Rows : 86
temp_coeff = 1.714546e+02
Doing analysis at TEMP = 85.000000 and TNOM = 27.000000


No. of Data Rows : 141
vldo_sup_2          =  1.771799e+00
vldo_sup_2_8        =  1.812542e+00
line_reg = 5.092875e-02
Note: No ".plot", ".print", or ".fourier" lines; no simulations run
vin                 =  1.992807e+00
dropout = 2.288070e-01
