 Reference value :  0.00000e+00
No compatibility mode selected!


Circuit: * ldo netlist 

Doing analysis at TEMP = 27.000000 and TNOM = 27.000000


No. of Data Rows : 1
bg_out = 1.097436e+00
inn = 1.141815e+00
inp = 1.141758e+00
l1#branch = 0.000000e+00
ldo_out = 1.803919e+00
m.xm1.msky130_fd_pr__nfet_g5v0d10v5#body = 1.320483e-11
m.xm1.msky130_fd_pr__nfet_g5v0d10v5#dbody = 2.611638e-11
m.xm1.msky130_fd_pr__nfet_g5v0d10v5#sbody = 1.349812e-11
m.xm2.msky130_fd_pr__pfet_g5v0d10v5#body = 2.100000e+00
m.xm2.msky130_fd_pr__pfet_g5v0d10v5#dbody = 2.100000e+00
m.xm2.msky130_fd_pr__pfet_g5v0d10v5#sbody = 2.100000e+00
m.xm3.msky130_fd_pr__pfet_g5v0d10v5#body = 2.100000e+00
m.xm3.msky130_fd_pr__pfet_g5v0d10v5#dbody = 2.100000e+00
m.xm3.msky130_fd_pr__pfet_g5v0d10v5#sbody = 2.100000e+00
m.xm4.msky130_fd_pr__pfet_g5v0d10v5#body = 2.100000e+00
m.xm4.msky130_fd_pr__pfet_g5v0d10v5#dbody = 2.100000e+00
m.xm4.msky130_fd_pr__pfet_g5v0d10v5#sbody = 2.100000e+00
m.xm5.msky130_fd_pr__pfet_g5v0d10v5#body = 2.100000e+00
m.xm5.msky130_fd_pr__pfet_g5v0d10v5#dbody = 2.100000e+00
m.xm5.msky130_fd_pr__pfet_g5v0d10v5#sbody = 2.100000e+00
m.xm6.msky130_fd_pr__nfet_g5v0d10v5#body = 1.114976e-11
m.xm6.msky130_fd_pr__nfet_g5v0d10v5#dbody = 2.787440e-11
m.xm6.msky130_fd_pr__nfet_g5v0d10v5#sbody = 5.574885e-12
m.xm7.msky130_fd_pr__pfet_g5v0d10v5#body = 2.100000e+00
m.xm7.msky130_fd_pr__pfet_g5v0d10v5#dbody = 2.100000e+00
m.xm7.msky130_fd_pr__pfet_g5v0d10v5#sbody = 2.100000e+00
m.xm8.msky130_fd_pr__pfet_g5v0d10v5#body = 2.100000e+00
m.xm8.msky130_fd_pr__pfet_g5v0d10v5#dbody = 2.100000e+00
m.xm8.msky130_fd_pr__pfet_g5v0d10v5#sbody = 2.100000e+00
m.xm9.msky130_fd_pr__nfet_g5v0d10v5#body = 1.384892e-11
m.xm9.msky130_fd_pr__nfet_g5v0d10v5#dbody = 2.882278e-11
m.xm9.msky130_fd_pr__nfet_g5v0d10v5#sbody = 1.272398e-11
m.xm10.msky130_fd_pr__nfet_g5v0d10v5#body = 1.361383e-11
m.xm10.msky130_fd_pr__nfet_g5v0d10v5#dbody = 2.823506e-11
m.xm10.msky130_fd_pr__nfet_g5v0d10v5#sbody = 1.260644e-11
m.xm11.msky130_fd_pr__pfet_g5v0d10v5#body = 2.100000e+00
m.xm11.msky130_fd_pr__pfet_g5v0d10v5#dbody = 2.100000e+00
m.xm11.msky130_fd_pr__pfet_g5v0d10v5#sbody = 2.100000e+00
m.xm12.msky130_fd_pr__pfet_g5v0d10v5#body = 2.100000e+00
m.xm12.msky130_fd_pr__pfet_g5v0d10v5#dbody = 2.100000e+00
m.xm12.msky130_fd_pr__pfet_g5v0d10v5#sbody = 2.100000e+00
m.xm13.msky130_fd_pr__nfet_g5v0d10v5#body = 2.898404e-12
m.xm13.msky130_fd_pr__nfet_g5v0d10v5#dbody = 7.245999e-12
m.xm13.msky130_fd_pr__nfet_g5v0d10v5#sbody = 1.449213e-12
m.xm14.msky130_fd_pr__pfet_g5v0d10v5#body = 2.100000e+00
m.xm14.msky130_fd_pr__pfet_g5v0d10v5#dbody = 2.100000e+00
m.xm14.msky130_fd_pr__pfet_g5v0d10v5#sbody = 2.100000e+00
m.xm15.msky130_fd_pr__nfet_g5v0d10v5#body = 1.352676e-17
m.xm15.msky130_fd_pr__nfet_g5v0d10v5#dbody = 3.381585e-17
m.xm15.msky130_fd_pr__nfet_g5v0d10v5#sbody = 6.764425e-18
m.xm16.msky130_fd_pr__nfet_g5v0d10v5#body = 4.053132e-11
m.xm16.msky130_fd_pr__nfet_g5v0d10v5#dbody = 7.277429e-11
m.xm16.msky130_fd_pr__nfet_g5v0d10v5#sbody = 4.881966e-11
m.xm17.msky130_fd_pr__pfet_g5v0d10v5#body = 2.100000e+00
m.xm17.msky130_fd_pr__pfet_g5v0d10v5#dbody = 2.100000e+00
m.xm17.msky130_fd_pr__pfet_g5v0d10v5#sbody = 2.100000e+00
m.xm18.msky130_fd_pr__nfet_g5v0d10v5#body = 1.488649e-11
m.xm18.msky130_fd_pr__nfet_g5v0d10v5#dbody = 3.721621e-11
m.xm18.msky130_fd_pr__nfet_g5v0d10v5#sbody = 7.443259e-12
m.xm19.msky130_fd_pr__nfet_g5v0d10v5#body = 1.326921e-11
m.xm19.msky130_fd_pr__nfet_g5v0d10v5#dbody = 2.627733e-11
m.xm19.msky130_fd_pr__nfet_g5v0d10v5#sbody = 1.353031e-11
m.xm20.msky130_fd_pr__nfet_g5v0d10v5#body = 1.106556e-11
m.xm20.msky130_fd_pr__nfet_g5v0d10v5#dbody = 2.766387e-11
m.xm20.msky130_fd_pr__nfet_g5v0d10v5#sbody = 5.532790e-12
m.xm22.msky130_fd_pr__nfet_g5v0d10v5#body = 3.450564e-12
m.xm22.msky130_fd_pr__nfet_g5v0d10v5#dbody = 8.626404e-12
m.xm22.msky130_fd_pr__nfet_g5v0d10v5#sbody = 1.725287e-12
m.xm24.msky130_fd_pr__pfet_g5v0d10v5#body = 2.100000e+00
m.xm24.msky130_fd_pr__pfet_g5v0d10v5#dbody = 2.100000e+00
m.xm24.msky130_fd_pr__pfet_g5v0d10v5#sbody = 2.100000e+00
m.xm26.msky130_fd_pr__pfet_g5v0d10v5#body = 2.100000e+00
m.xm26.msky130_fd_pr__pfet_g5v0d10v5#dbody = 2.100000e+00
m.xm26.msky130_fd_pr__pfet_g5v0d10v5#sbody = 2.100000e+00
mir = 7.802135e-01
net1 = 7.262528e-01
net2 = 1.040860e-06
net3 = 7.859489e-01
net4 = 2.754828e-01
net5 = 7.853637e-01
net6 = 8.914185e-01
net7 = 7.858905e-01
net8 = 8.568891e-01
net9 = 8.756963e-01
net10 = 2.317442e-01
net11 = 1.190791e+00
net12 = 1.190791e+00
net13 = 0.000000e+00
out = 1.190791e+00
pos = 1.097660e+00
q.xq2.qsky130_fd_pr__pnp_05v5_w0p68l0p68#collcx = 2.180469e-03
q.xq3.qsky130_fd_pr__pnp_05v5_w0p68l0p68#collcx = 2.747016e-04
q.xq4.qsky130_fd_pr__pnp_05v5_w0p68l0p68#collcx = 2.747016e-04
q.xq8.qsky130_fd_pr__pnp_05v5_w0p68l0p68#collcx = 2.747016e-04
q.xq10.qsky130_fd_pr__pnp_05v5_w0p68l0p68#collcx = 2.747016e-04
q.xq12.qsky130_fd_pr__pnp_05v5_w0p68l0p68#collcx = 2.747016e-04
q.xq14.qsky130_fd_pr__pnp_05v5_w0p68l0p68#collcx = 2.747016e-04
q.xq16.qsky130_fd_pr__pnp_05v5_w0p68l0p68#collcx = 2.747016e-04
q.xq18.qsky130_fd_pr__pnp_05v5_w0p68l0p68#collcx = 2.747016e-04
vb = 8.851161e-01
vdd = 2.100000e+00
vs#branch = -1.77884e-04
vt#branch = 0.000000e+00
xc1.a = 0.000000e+00
xc1.b1 = 0.000000e+00
xc3.a = 1.190791e+00
xc3.b1 = 1.190791e+00
xr1.xsky130_fd_pr__res_xhigh_po_0p69.ra = 7.913604e-01
xr2.xsky130_fd_pr__res_xhigh_po_0p69.ra = 7.914188e-01
xr3.xsky130_fd_pr__res_xhigh_po_0p69.ra = 3.785443e-03
xr4.xsky130_fd_pr__res_xhigh_po_0p69.ra = 7.280410e-01
xr5.xsky130_fd_pr__res_xhigh_po_0p69.ra = 3.785143e-03
xr6.xsky130_fd_pr__res_xhigh_po_0p69.ra = 5.806919e-03
xr7.xsky130_fd_pr__res_xhigh_po_0p69.ra = 1.190791e+00
xr8.xsky130_fd_pr__res_xhigh_po_0p69.ra = 1.106484e+00
xr9.xsky130_fd_pr__res_xhigh_po_0p69.ra = 9.108882e-03
Doing analysis at TEMP = 27.000000 and TNOM = 27.000000


No. of Data Rows : 91
Note: Starting true gmin stepping
Trying gmin =   1.0000E-03 Note: One successful gmin step
Trying gmin =   1.0000E-04 Note: One successful gmin step
Trying gmin =   1.0000E-05 Note: One successful gmin step
Trying gmin =   1.0000E-06 Note: One successful gmin step
Trying gmin =   1.0000E-07 Note: One successful gmin step
Trying gmin =   1.0000E-08 Warning: Further gmin increment
Trying gmin =   5.6234E-08 Note: One successful gmin step
Trying gmin =   3.1623E-08 Warning: Further gmin increment
Trying gmin =   4.8697E-08 Note: One successful gmin step
Trying gmin =   3.9242E-08 Note: One successful gmin step
Trying gmin =   2.8387E-08 Note: One successful gmin step
Trying gmin =   1.7466E-08 Note: One successful gmin step
Trying gmin =   8.4291E-09 Note: One successful gmin step
Trying gmin =   2.8260E-09 Note: One successful gmin step
Trying gmin =   5.4860E-10 Note: One successful gmin step
Trying gmin =   5.4860E-11 Note: One successful gmin step
Trying gmin =   5.4860E-12 Note: One successful gmin step
Trying gmin =   1.0000E-12 Note: One successful gmin step
Note: True gmin stepping completed
 Reference value :  1.50000e+00Note: Starting true gmin stepping
Trying gmin =   1.0000E-03 Note: One successful gmin step
Trying gmin =   1.0000E-04 Note: One successful gmin step
Trying gmin =   1.0000E-05 Note: One successful gmin step
Trying gmin =   1.0000E-06 Note: One successful gmin step
Trying gmin =   1.0000E-07 Note: One successful gmin step
Trying gmin =   1.0000E-08 Warning: Further gmin increment
Trying gmin =   5.6234E-08 Note: One successful gmin step
Trying gmin =   3.1623E-08 Warning: Further gmin increment
Trying gmin =   4.8697E-08 Note: One successful gmin step
Trying gmin =   3.9242E-08 Note: One successful gmin step
Trying gmin =   2.8387E-08 Note: One successful gmin step
Trying gmin =   1.7466E-08 Note: One successful gmin step
Trying gmin =   8.4291E-09 Note: One successful gmin step
Trying gmin =   2.8260E-09 Note: One successful gmin step
Trying gmin =   5.4860E-10 Note: One successful gmin step
Trying gmin =   5.4860E-11 Note: One successful gmin step
Trying gmin =   5.4860E-12 Note: One successful gmin step
Trying gmin =   1.0000E-12 Note: One successful gmin step
Note: True gmin stepping completed
pm                  =  6.355118e+01
Doing analysis at TEMP = 27.000000 and TNOM = 27.000000


No. of Data Rows : 91
psrr100             =  -7.368666e+01
psrr100k            =  -2.702415e+01
Doing analysis at TEMP = 27.000000 and TNOM = 27.000000


No. of Data Rows : 86
temp_coeff = 3.869146e+01
Doing analysis at TEMP = 27.000000 and TNOM = 27.000000


No. of Data Rows : 141
vldo_sup_2          =  1.803862e+00
vldo_sup_2_8        =  1.803813e+00
line_reg = 6.125000e-05
Note: No ".plot", ".print", or ".fourier" lines; no simulations run
vin                 =  1.764160e+00
dropout = 1.600000e-04
