 Reference value :  0.00000e+00
No compatibility mode selected!


Circuit: * ldo netlist 

Doing analysis at TEMP = 85.000000 and TNOM = 27.000000


No. of Data Rows : 1
bg_out = 1.200415e+00
inn = 1.146486e+00
inp = 1.146445e+00
l1#branch = 0.000000e+00
ldo_out = 1.806062e+00
m.xm1.msky130_fd_pr__nfet_g5v0d10v5#body = 3.158772e-11
m.xm1.msky130_fd_pr__nfet_g5v0d10v5#dbody = 6.255452e-11
m.xm1.msky130_fd_pr__nfet_g5v0d10v5#sbody = 3.220857e-11
m.xm2.msky130_fd_pr__pfet_g5v0d10v5#body = 2.500000e+00
m.xm2.msky130_fd_pr__pfet_g5v0d10v5#dbody = 2.500000e+00
m.xm2.msky130_fd_pr__pfet_g5v0d10v5#sbody = 2.500000e+00
m.xm3.msky130_fd_pr__pfet_g5v0d10v5#body = 2.500000e+00
m.xm3.msky130_fd_pr__pfet_g5v0d10v5#dbody = 2.500000e+00
m.xm3.msky130_fd_pr__pfet_g5v0d10v5#sbody = 2.500000e+00
m.xm4.msky130_fd_pr__pfet_g5v0d10v5#body = 2.500000e+00
m.xm4.msky130_fd_pr__pfet_g5v0d10v5#dbody = 2.500000e+00
m.xm4.msky130_fd_pr__pfet_g5v0d10v5#sbody = 2.500000e+00
m.xm5.msky130_fd_pr__pfet_g5v0d10v5#body = 2.500000e+00
m.xm5.msky130_fd_pr__pfet_g5v0d10v5#dbody = 2.500000e+00
m.xm5.msky130_fd_pr__pfet_g5v0d10v5#sbody = 2.500000e+00
m.xm6.msky130_fd_pr__nfet_g5v0d10v5#body = 2.049851e-11
m.xm6.msky130_fd_pr__nfet_g5v0d10v5#dbody = 5.124617e-11
m.xm6.msky130_fd_pr__nfet_g5v0d10v5#sbody = 1.024937e-11
m.xm7.msky130_fd_pr__pfet_g5v0d10v5#body = 2.500000e+00
m.xm7.msky130_fd_pr__pfet_g5v0d10v5#dbody = 2.500000e+00
m.xm7.msky130_fd_pr__pfet_g5v0d10v5#sbody = 2.500000e+00
m.xm8.msky130_fd_pr__pfet_g5v0d10v5#body = 2.500000e+00
m.xm8.msky130_fd_pr__pfet_g5v0d10v5#dbody = 2.500000e+00
m.xm8.msky130_fd_pr__pfet_g5v0d10v5#sbody = 2.500000e+00
m.xm9.msky130_fd_pr__nfet_g5v0d10v5#body = 2.976170e-11
m.xm9.msky130_fd_pr__nfet_g5v0d10v5#dbody = 6.079511e-11
m.xm9.msky130_fd_pr__nfet_g5v0d10v5#sbody = 2.848970e-11
m.xm10.msky130_fd_pr__nfet_g5v0d10v5#body = 2.959186e-11
m.xm10.msky130_fd_pr__nfet_g5v0d10v5#dbody = 6.037060e-11
m.xm10.msky130_fd_pr__nfet_g5v0d10v5#sbody = 2.840478e-11
m.xm11.msky130_fd_pr__pfet_g5v0d10v5#body = 2.500000e+00
m.xm11.msky130_fd_pr__pfet_g5v0d10v5#dbody = 2.500000e+00
m.xm11.msky130_fd_pr__pfet_g5v0d10v5#sbody = 2.500000e+00
m.xm12.msky130_fd_pr__pfet_g5v0d10v5#body = 2.500000e+00
m.xm12.msky130_fd_pr__pfet_g5v0d10v5#dbody = 2.500000e+00
m.xm12.msky130_fd_pr__pfet_g5v0d10v5#sbody = 2.500000e+00
m.xm13.msky130_fd_pr__nfet_g5v0d10v5#body = 5.157541e-12
m.xm13.msky130_fd_pr__nfet_g5v0d10v5#dbody = 1.289379e-11
m.xm13.msky130_fd_pr__nfet_g5v0d10v5#sbody = 2.578836e-12
m.xm14.msky130_fd_pr__pfet_g5v0d10v5#body = 2.500000e+00
m.xm14.msky130_fd_pr__pfet_g5v0d10v5#dbody = 2.500000e+00
m.xm14.msky130_fd_pr__pfet_g5v0d10v5#sbody = 2.500000e+00
m.xm15.msky130_fd_pr__nfet_g5v0d10v5#body = 8.199351e-14
m.xm15.msky130_fd_pr__nfet_g5v0d10v5#dbody = 2.049804e-13
m.xm15.msky130_fd_pr__nfet_g5v0d10v5#sbody = 4.100010e-14
m.xm16.msky130_fd_pr__nfet_g5v0d10v5#body = 5.620963e-11
m.xm16.msky130_fd_pr__nfet_g5v0d10v5#dbody = 1.012334e-10
m.xm16.msky130_fd_pr__nfet_g5v0d10v5#sbody = 6.739552e-11
m.xm17.msky130_fd_pr__pfet_g5v0d10v5#body = 2.500000e+00
m.xm17.msky130_fd_pr__pfet_g5v0d10v5#dbody = 2.500000e+00
m.xm17.msky130_fd_pr__pfet_g5v0d10v5#sbody = 2.500000e+00
m.xm18.msky130_fd_pr__nfet_g5v0d10v5#body = 1.724197e-11
m.xm18.msky130_fd_pr__nfet_g5v0d10v5#dbody = 4.310483e-11
m.xm18.msky130_fd_pr__nfet_g5v0d10v5#sbody = 8.621060e-12
m.xm19.msky130_fd_pr__nfet_g5v0d10v5#body = 3.165424e-11
m.xm19.msky130_fd_pr__nfet_g5v0d10v5#dbody = 6.272080e-11
m.xm19.msky130_fd_pr__nfet_g5v0d10v5#sbody = 3.224182e-11
m.xm20.msky130_fd_pr__nfet_g5v0d10v5#body = 1.455743e-11
m.xm20.msky130_fd_pr__nfet_g5v0d10v5#dbody = 3.639350e-11
m.xm20.msky130_fd_pr__nfet_g5v0d10v5#sbody = 7.278791e-12
m.xm22.msky130_fd_pr__nfet_g5v0d10v5#body = 1.149986e-11
m.xm22.msky130_fd_pr__nfet_g5v0d10v5#dbody = 2.874955e-11
m.xm22.msky130_fd_pr__nfet_g5v0d10v5#sbody = 5.750037e-12
m.xm24.msky130_fd_pr__pfet_g5v0d10v5#body = 2.500000e+00
m.xm24.msky130_fd_pr__pfet_g5v0d10v5#dbody = 2.500000e+00
m.xm24.msky130_fd_pr__pfet_g5v0d10v5#sbody = 2.500000e+00
m.xm26.msky130_fd_pr__pfet_g5v0d10v5#body = 2.500000e+00
m.xm26.msky130_fd_pr__pfet_g5v0d10v5#dbody = 2.500000e+00
m.xm26.msky130_fd_pr__pfet_g5v0d10v5#sbody = 2.500000e+00
mir = 1.445284e+00
net1 = 6.298226e-01
net2 = 1.582709e-04
net3 = 7.033783e-01
net4 = 2.318439e-01
net5 = 1.450605e+00
net6 = 9.510906e-01
net7 = 7.033363e-01
net8 = 1.529666e+00
net9 = 1.543250e+00
net10 = 2.511870e-01
net11 = 1.217856e+00
net12 = 1.217856e+00
net13 = 0.000000e+00
out = 1.217856e+00
pos = 1.200558e+00
q.xq2.qsky130_fd_pr__pnp_05v5_w0p68l0p68#collcx = 2.964726e-03
q.xq3.qsky130_fd_pr__pnp_05v5_w0p68l0p68#collcx = 3.741819e-04
q.xq4.qsky130_fd_pr__pnp_05v5_w0p68l0p68#collcx = 3.741819e-04
q.xq8.qsky130_fd_pr__pnp_05v5_w0p68l0p68#collcx = 3.741819e-04
q.xq10.qsky130_fd_pr__pnp_05v5_w0p68l0p68#collcx = 3.741819e-04
q.xq12.qsky130_fd_pr__pnp_05v5_w0p68l0p68#collcx = 3.741819e-04
q.xq14.qsky130_fd_pr__pnp_05v5_w0p68l0p68#collcx = 3.741819e-04
q.xq16.qsky130_fd_pr__pnp_05v5_w0p68l0p68#collcx = 3.741819e-04
q.xq18.qsky130_fd_pr__pnp_05v5_w0p68l0p68#collcx = 3.741819e-04
vb = 1.003093e+00
vdd = 2.500000e+00
vs#branch = -1.00474e-01
vt#branch = 0.000000e+00
xc1.a = 0.000000e+00
xc1.b1 = 0.000000e+00
xc3.a = 1.217856e+00
xc3.b1 = 1.217856e+00
xr1.xsky130_fd_pr__res_xhigh_po_0p69.ra = 7.091522e-01
xr2.xsky130_fd_pr__res_xhigh_po_0p69.ra = 7.091941e-01
xr3.xsky130_fd_pr__res_xhigh_po_0p69.ra = 3.468063e-03
xr4.xsky130_fd_pr__res_xhigh_po_0p69.ra = 6.322028e-01
xr5.xsky130_fd_pr__res_xhigh_po_0p69.ra = 3.467844e-03
xr6.xsky130_fd_pr__res_xhigh_po_0p69.ra = 6.161015e-03
xr7.xsky130_fd_pr__res_xhigh_po_0p69.ra = 1.217856e+00
xr8.xsky130_fd_pr__res_xhigh_po_0p69.ra = 1.210799e+00
xr9.xsky130_fd_pr__res_xhigh_po_0p69.ra = 1.074183e-02
Doing analysis at TEMP = 85.000000 and TNOM = 27.000000


No. of Data Rows : 91
Note: Starting true gmin stepping
Trying gmin =   1.0000E-03 Note: One successful gmin step
Trying gmin =   1.0000E-04 Note: One successful gmin step
Trying gmin =   1.0000E-05 Note: One successful gmin step
Trying gmin =   1.0000E-06 Note: One successful gmin step
Trying gmin =   1.0000E-07 Warning: Further gmin increment
Trying gmin =   5.6234E-07 Note: One successful gmin step
Trying gmin =   2.3714E-07 Note: One successful gmin step
Trying gmin =   6.4938E-08 Warning: Further gmin increment
Trying gmin =   1.7154E-07 Note: One successful gmin step
Trying gmin =   1.0554E-07 Warning: Further gmin increment
Trying gmin =   1.5193E-07 Warning: Further gmin increment
Trying gmin =   1.6641E-07 Note: One successful gmin step
Trying gmin =   1.5901E-07 Note: One successful gmin step
Trying gmin =   1.4851E-07 Warning: Further gmin increment
Trying gmin =   1.5631E-07 Note: One successful gmin step
Trying gmin =   1.5236E-07 Warning: Further gmin increment
Trying gmin =   1.5532E-07 Note: One successful gmin step
Trying gmin =   1.5383E-07 Warning: Further gmin increment
Trying gmin =   1.5494E-07 Note: One successful gmin step
Trying gmin =   1.5439E-07 Note: One successful gmin step
Trying gmin =   1.5356E-07 Warning: Further gmin increment
Trying gmin =   1.5418E-07 Note: One successful gmin step
Trying gmin =   1.5387E-07 Warning: Further gmin increment
Trying gmin =   1.5410E-07 Note: One successful gmin step
Trying gmin =   1.5398E-07 Warning: Further gmin increment
Trying gmin =   1.5407E-07 Note: One successful gmin step
Trying gmin =   1.5403E-07 Warning: Further gmin increment
Trying gmin =   1.5406E-07 Note: One successful gmin step
Trying gmin =   1.5404E-07 Warning: Further gmin increment
Trying gmin =   1.5406E-07 Note: One successful gmin step
Trying gmin =   1.5405E-07 Warning: Last gmin step failed
Warning: True gmin stepping failed
Note: Starting dynamic gmin stepping
Trying gmin =   1.0000E-03 Note: One successful gmin step
Trying gmin =   1.0000E-04 Note: One successful gmin step
Trying gmin =   1.0000E-05 Note: One successful gmin step
Trying gmin =   1.0000E-06 Note: One successful gmin step
Trying gmin =   1.0000E-07 Note: One successful gmin step
Trying gmin =   1.0000E-08 Note: One successful gmin step
Trying gmin =   1.0000E-09 Note: One successful gmin step
Trying gmin =   1.0000E-10 Note: One successful gmin step
Trying gmin =   1.0000E-11 Note: One successful gmin step
Trying gmin =   1.0000E-12 Note: One successful gmin step
Trying gmin =   1.0000E-12 Note: One successful gmin step
Note: Dynamic gmin stepping completed
 Reference value :  2.80000e+00Note: Starting true gmin stepping
Trying gmin =   1.0000E-03 Note: One successful gmin step
Trying gmin =   1.0000E-04 Note: One successful gmin step
Trying gmin =   1.0000E-05 Note: One successful gmin step
Trying gmin =   1.0000E-06 Note: One successful gmin step
Trying gmin =   1.0000E-07 Note: One successful gmin step
Trying gmin =   1.0000E-08 Note: One successful gmin step
Trying gmin =   1.0000E-09 Note: One successful gmin step
Trying gmin =   1.0000E-10 Warning: Further gmin increment
Trying gmin =   5.6234E-10 Note: One successful gmin step
Trying gmin =   2.3714E-10 Note: One successful gmin step
Trying gmin =   6.4938E-11 Warning: Further gmin increment
Trying gmin =   1.7154E-10 Note: One successful gmin step
Trying gmin =   1.0554E-10 Note: One successful gmin step
Trying gmin =   5.0937E-11 Note: One successful gmin step
Trying gmin =   1.7077E-11 Note: One successful gmin step
Trying gmin =   3.3152E-12 Note: One successful gmin step
Trying gmin =   1.0000E-12 Note: One successful gmin step
Note: True gmin stepping completed
 Reference value :  1.02000e+00pm                  =  8.233548e+01
Doing analysis at TEMP = 85.000000 and TNOM = 27.000000


No. of Data Rows : 91
psrr100             =  -5.317737e+01
psrr100k            =  -2.453615e+01
Doing analysis at TEMP = 85.000000 and TNOM = 27.000000


No. of Data Rows : 86
temp_coeff = 1.372739e+02
Doing analysis at TEMP = 85.000000 and TNOM = 27.000000


No. of Data Rows : 141
vldo_sup_2          =  1.804112e+00
vldo_sup_2_8        =  1.806602e+00
line_reg = 3.112500e-03
Note: No ".plot", ".print", or ".fourier" lines; no simulations run
vin                 =  1.916111e+00
dropout = 1.521110e-01
