 Reference value :  0.00000e+00
No compatibility mode selected!


Circuit: * ldo netlist 

Doing analysis at TEMP = 85.000000 and TNOM = 27.000000


No. of Data Rows : 1
bg_out = 1.203750e+00
inn = 1.150051e+00
inp = 1.150024e+00
l1#branch = 0.000000e+00
ldo_out = 1.811704e+00
m.xm1.msky130_fd_pr__nfet_g5v0d10v5#body = 2.768546e-11
m.xm1.msky130_fd_pr__nfet_g5v0d10v5#dbody = 5.044898e-11
m.xm1.msky130_fd_pr__nfet_g5v0d10v5#sbody = 3.260739e-11
m.xm2.msky130_fd_pr__pfet_g5v0d10v5#body = 2.300000e+00
m.xm2.msky130_fd_pr__pfet_g5v0d10v5#dbody = 2.300000e+00
m.xm2.msky130_fd_pr__pfet_g5v0d10v5#sbody = 2.300000e+00
m.xm3.msky130_fd_pr__pfet_g5v0d10v5#body = 2.300000e+00
m.xm3.msky130_fd_pr__pfet_g5v0d10v5#dbody = 2.300000e+00
m.xm3.msky130_fd_pr__pfet_g5v0d10v5#sbody = 2.300000e+00
m.xm4.msky130_fd_pr__pfet_g5v0d10v5#body = 2.300000e+00
m.xm4.msky130_fd_pr__pfet_g5v0d10v5#dbody = 2.300000e+00
m.xm4.msky130_fd_pr__pfet_g5v0d10v5#sbody = 2.300000e+00
m.xm5.msky130_fd_pr__pfet_g5v0d10v5#body = 2.300000e+00
m.xm5.msky130_fd_pr__pfet_g5v0d10v5#dbody = 2.300000e+00
m.xm5.msky130_fd_pr__pfet_g5v0d10v5#sbody = 2.300000e+00
m.xm6.msky130_fd_pr__nfet_g5v0d10v5#body = 1.916268e-11
m.xm6.msky130_fd_pr__nfet_g5v0d10v5#dbody = 4.790658e-11
m.xm6.msky130_fd_pr__nfet_g5v0d10v5#sbody = 9.581457e-12
m.xm7.msky130_fd_pr__pfet_g5v0d10v5#body = 2.300000e+00
m.xm7.msky130_fd_pr__pfet_g5v0d10v5#dbody = 2.300000e+00
m.xm7.msky130_fd_pr__pfet_g5v0d10v5#sbody = 2.300000e+00
m.xm8.msky130_fd_pr__pfet_g5v0d10v5#body = 2.300000e+00
m.xm8.msky130_fd_pr__pfet_g5v0d10v5#dbody = 2.300000e+00
m.xm8.msky130_fd_pr__pfet_g5v0d10v5#sbody = 2.300000e+00
m.xm9.msky130_fd_pr__nfet_g5v0d10v5#body = 2.596454e-11
m.xm9.msky130_fd_pr__nfet_g5v0d10v5#dbody = 4.881262e-11
m.xm9.msky130_fd_pr__nfet_g5v0d10v5#sbody = 2.908101e-11
m.xm10.msky130_fd_pr__nfet_g5v0d10v5#body = 2.573216e-11
m.xm10.msky130_fd_pr__nfet_g5v0d10v5#dbody = 4.823165e-11
m.xm10.msky130_fd_pr__nfet_g5v0d10v5#sbody = 2.896482e-11
m.xm11.msky130_fd_pr__pfet_g5v0d10v5#body = 2.300000e+00
m.xm11.msky130_fd_pr__pfet_g5v0d10v5#dbody = 2.300000e+00
m.xm11.msky130_fd_pr__pfet_g5v0d10v5#sbody = 2.300000e+00
m.xm12.msky130_fd_pr__pfet_g5v0d10v5#body = 2.300000e+00
m.xm12.msky130_fd_pr__pfet_g5v0d10v5#dbody = 2.300000e+00
m.xm12.msky130_fd_pr__pfet_g5v0d10v5#sbody = 2.300000e+00
m.xm13.msky130_fd_pr__nfet_g5v0d10v5#body = 6.401660e-12
m.xm13.msky130_fd_pr__nfet_g5v0d10v5#dbody = 1.600408e-11
m.xm13.msky130_fd_pr__nfet_g5v0d10v5#sbody = 3.200902e-12
m.xm14.msky130_fd_pr__pfet_g5v0d10v5#body = 2.300000e+00
m.xm14.msky130_fd_pr__pfet_g5v0d10v5#dbody = 2.300000e+00
m.xm14.msky130_fd_pr__pfet_g5v0d10v5#sbody = 2.300000e+00
m.xm15.msky130_fd_pr__nfet_g5v0d10v5#body = 4.069148e-15
m.xm15.msky130_fd_pr__nfet_g5v0d10v5#dbody = 1.017252e-14
m.xm15.msky130_fd_pr__nfet_g5v0d10v5#sbody = 2.034922e-15
m.xm16.msky130_fd_pr__nfet_g5v0d10v5#body = 5.360601e-11
m.xm16.msky130_fd_pr__nfet_g5v0d10v5#dbody = 9.478337e-11
m.xm16.msky130_fd_pr__nfet_g5v0d10v5#sbody = 6.603464e-11
m.xm17.msky130_fd_pr__pfet_g5v0d10v5#body = 2.300000e+00
m.xm17.msky130_fd_pr__pfet_g5v0d10v5#dbody = 2.300000e+00
m.xm17.msky130_fd_pr__pfet_g5v0d10v5#sbody = 2.300000e+00
m.xm18.msky130_fd_pr__nfet_g5v0d10v5#body = 2.099376e-11
m.xm18.msky130_fd_pr__nfet_g5v0d10v5#dbody = 5.246597e-11
m.xm18.msky130_fd_pr__nfet_g5v0d10v5#sbody = 1.049696e-11
m.xm19.msky130_fd_pr__nfet_g5v0d10v5#body = 2.771983e-11
m.xm19.msky130_fd_pr__nfet_g5v0d10v5#dbody = 5.053491e-11
m.xm19.msky130_fd_pr__nfet_g5v0d10v5#sbody = 3.262458e-11
m.xm20.msky130_fd_pr__nfet_g5v0d10v5#body = 1.243611e-11
m.xm20.msky130_fd_pr__nfet_g5v0d10v5#dbody = 3.109019e-11
m.xm20.msky130_fd_pr__nfet_g5v0d10v5#sbody = 6.218132e-12
m.xm22.msky130_fd_pr__nfet_g5v0d10v5#body = 1.267778e-11
m.xm22.msky130_fd_pr__nfet_g5v0d10v5#dbody = 3.169433e-11
m.xm22.msky130_fd_pr__nfet_g5v0d10v5#sbody = 6.339003e-12
m.xm24.msky130_fd_pr__pfet_g5v0d10v5#body = 2.300000e+00
m.xm24.msky130_fd_pr__pfet_g5v0d10v5#dbody = 2.300000e+00
m.xm24.msky130_fd_pr__pfet_g5v0d10v5#sbody = 2.300000e+00
m.xm26.msky130_fd_pr__pfet_g5v0d10v5#body = 2.300000e+00
m.xm26.msky130_fd_pr__pfet_g5v0d10v5#dbody = 2.300000e+00
m.xm26.msky130_fd_pr__pfet_g5v0d10v5#sbody = 2.300000e+00
mir = 1.045035e+00
net1 = 6.313454e-01
net2 = 7.871090e-06
net3 = 7.052036e-01
net4 = 3.313911e-01
net5 = 1.047785e+00
net6 = 8.501512e-01
net7 = 7.051758e-01
net8 = 1.127230e+00
net9 = 1.145821e+00
net10 = 3.565627e-01
net11 = 1.523193e+00
net12 = 1.523193e+00
net13 = 0.000000e+00
out = 1.523193e+00
pos = 1.203978e+00
q.xq2.qsky130_fd_pr__pnp_05v5_w0p68l0p68#collcx = 3.102915e-03
q.xq3.qsky130_fd_pr__pnp_05v5_w0p68l0p68#collcx = 3.917967e-04
q.xq4.qsky130_fd_pr__pnp_05v5_w0p68l0p68#collcx = 3.917967e-04
q.xq8.qsky130_fd_pr__pnp_05v5_w0p68l0p68#collcx = 3.917967e-04
q.xq10.qsky130_fd_pr__pnp_05v5_w0p68l0p68#collcx = 3.917967e-04
q.xq12.qsky130_fd_pr__pnp_05v5_w0p68l0p68#collcx = 3.917967e-04
q.xq14.qsky130_fd_pr__pnp_05v5_w0p68l0p68#collcx = 3.917967e-04
q.xq16.qsky130_fd_pr__pnp_05v5_w0p68l0p68#collcx = 3.917967e-04
q.xq18.qsky130_fd_pr__pnp_05v5_w0p68l0p68#collcx = 3.917967e-04
vb = 8.393148e-01
vdd = 2.300000e+00
vs#branch = -1.95744e-04
vt#branch = 0.000000e+00
xc1.a = 0.000000e+00
xc1.b1 = 0.000000e+00
xc3.a = 1.523193e+00
xc3.b1 = 1.523193e+00
xr1.xsky130_fd_pr__res_xhigh_po_0p69.ra = 7.083519e-01
xr2.xsky130_fd_pr__res_xhigh_po_0p69.ra = 7.083797e-01
xr3.xsky130_fd_pr__res_xhigh_po_0p69.ra = 1.893394e-03
xr4.xsky130_fd_pr__res_xhigh_po_0p69.ra = 6.326456e-01
xr5.xsky130_fd_pr__res_xhigh_po_0p69.ra = 1.893315e-03
xr6.xsky130_fd_pr__res_xhigh_po_0p69.ra = 3.364867e-03
xr7.xsky130_fd_pr__res_xhigh_po_0p69.ra = 1.523193e+00
xr8.xsky130_fd_pr__res_xhigh_po_0p69.ra = 1.209569e+00
xr9.xsky130_fd_pr__res_xhigh_po_0p69.ra = 5.864825e-03
Doing analysis at TEMP = 85.000000 and TNOM = 27.000000


No. of Data Rows : 91
Note: Starting true gmin stepping
Trying gmin =   1.0000E-03 Note: One successful gmin step
Trying gmin =   1.0000E-04 Note: One successful gmin step
Trying gmin =   1.0000E-05 Note: One successful gmin step
Trying gmin =   1.0000E-06 Note: One successful gmin step
Trying gmin =   1.0000E-07 Note: One successful gmin step
Trying gmin =   1.0000E-08 Warning: Further gmin increment
Trying gmin =   5.6234E-08 Warning: Further gmin increment
Trying gmin =   8.6596E-08 Note: One successful gmin step
Trying gmin =   6.9783E-08 Note: One successful gmin step
Trying gmin =   5.0481E-08 Note: One successful gmin step
Trying gmin =   3.1059E-08 Note: One successful gmin step
Trying gmin =   1.4989E-08 Note: One successful gmin step
Trying gmin =   5.0254E-09 Note: One successful gmin step
Trying gmin =   9.7557E-10 Note: One successful gmin step
Trying gmin =   9.7557E-11 Note: One successful gmin step
Trying gmin =   9.7557E-12 Note: One successful gmin step
Trying gmin =   1.0000E-12 Note: One successful gmin step
Note: True gmin stepping completed
 Reference value :  1.46000e+00Note: Starting true gmin stepping
Trying gmin =   1.0000E-03 Note: One successful gmin step
Trying gmin =   1.0000E-04 Note: One successful gmin step
Trying gmin =   1.0000E-05 Note: One successful gmin step
Trying gmin =   1.0000E-06 Note: One successful gmin step
Trying gmin =   1.0000E-07 Note: One successful gmin step
Trying gmin =   1.0000E-08 Warning: Further gmin increment
Trying gmin =   5.6234E-08 Warning: Further gmin increment
Trying gmin =   8.6596E-08 Note: One successful gmin step
Trying gmin =   6.9783E-08 Note: One successful gmin step
Trying gmin =   5.6234E-08 Note: One successful gmin step
Trying gmin =   4.0679E-08 Note: One successful gmin step
Trying gmin =   2.5029E-08 Note: One successful gmin step
Trying gmin =   1.2079E-08 Note: One successful gmin step
Trying gmin =   4.0497E-09 Note: One successful gmin step
Trying gmin =   7.8615E-10 Note: One successful gmin step
Trying gmin =   7.8615E-11 Note: One successful gmin step
Trying gmin =   7.8615E-12 Note: One successful gmin step
Trying gmin =   1.0000E-12 Note: One successful gmin step
Note: True gmin stepping completed
Note: Starting true gmin stepping
Trying gmin =   1.0000E-03 Note: One successful gmin step
Trying gmin =   1.0000E-04 Note: One successful gmin step
Trying gmin =   1.0000E-05 Note: One successful gmin step
Trying gmin =   1.0000E-06 Note: One successful gmin step
Trying gmin =   1.0000E-07 Note: One successful gmin step
Trying gmin =   1.0000E-08 Warning: Further gmin increment
Trying gmin =   5.6234E-08 Note: One successful gmin step
Trying gmin =   3.1623E-08 Note: One successful gmin step
Trying gmin =   1.3335E-08 Warning: Further gmin increment
Trying gmin =   2.5483E-08 Note: One successful gmin step
Trying gmin =   1.8434E-08 Note: One successful gmin step
Trying gmin =   1.1342E-08 Note: One successful gmin step
Trying gmin =   5.4737E-09 Note: One successful gmin step
Trying gmin =   1.8352E-09 Note: One successful gmin step
Trying gmin =   3.5625E-10 Note: One successful gmin step
Trying gmin =   3.5625E-11 Note: One successful gmin step
Trying gmin =   3.5625E-12 Note: One successful gmin step
Trying gmin =   1.0000E-12 Note: One successful gmin step
Note: True gmin stepping completed
 Reference value :  1.24000e+00pm                  =  5.260845e+01
Doing analysis at TEMP = 85.000000 and TNOM = 27.000000


No. of Data Rows : 91
psrr100             =  -5.051888e+01
psrr100k            =  -2.723240e+01
Doing analysis at TEMP = 85.000000 and TNOM = 27.000000


No. of Data Rows : 86
temp_coeff = 1.746536e+02
Doing analysis at TEMP = 85.000000 and TNOM = 27.000000


No. of Data Rows : 141
vldo_sup_2          =  1.810346e+00
vldo_sup_2_8        =  1.812709e+00
line_reg = 2.953750e-03
Note: No ".plot", ".print", or ".fourier" lines; no simulations run
vin                 =  1.764183e+00
dropout = 1.830000e-04
