 Reference value :  0.00000e+00
No compatibility mode selected!


Circuit: * ldo netlist 

Doing analysis at TEMP = 27.000000 and TNOM = 27.000000


No. of Data Rows : 1
bg_out = 1.187553e+00
inn = 1.214923e+00
inp = 1.214920e+00
l1#branch = 0.000000e+00
ldo_out = 1.785713e+00
m.xm1.msky130_fd_pr__nfet_g5v0d10v5#body = 2.095815e-11
m.xm1.msky130_fd_pr__nfet_g5v0d10v5#dbody = 4.435713e-11
m.xm1.msky130_fd_pr__nfet_g5v0d10v5#sbody = 1.851730e-11
m.xm2.msky130_fd_pr__pfet_g5v0d10v5#body = 2.500000e+00
m.xm2.msky130_fd_pr__pfet_g5v0d10v5#dbody = 2.500000e+00
m.xm2.msky130_fd_pr__pfet_g5v0d10v5#sbody = 2.500000e+00
m.xm3.msky130_fd_pr__pfet_g5v0d10v5#body = 2.500000e+00
m.xm3.msky130_fd_pr__pfet_g5v0d10v5#dbody = 2.500000e+00
m.xm3.msky130_fd_pr__pfet_g5v0d10v5#sbody = 2.500000e+00
m.xm4.msky130_fd_pr__pfet_g5v0d10v5#body = 2.500000e+00
m.xm4.msky130_fd_pr__pfet_g5v0d10v5#dbody = 2.500000e+00
m.xm4.msky130_fd_pr__pfet_g5v0d10v5#sbody = 2.500000e+00
m.xm5.msky130_fd_pr__pfet_g5v0d10v5#body = 2.500000e+00
m.xm5.msky130_fd_pr__pfet_g5v0d10v5#dbody = 2.500000e+00
m.xm5.msky130_fd_pr__pfet_g5v0d10v5#sbody = 2.500000e+00
m.xm6.msky130_fd_pr__nfet_g5v0d10v5#body = 1.124493e-11
m.xm6.msky130_fd_pr__nfet_g5v0d10v5#dbody = 2.811232e-11
m.xm6.msky130_fd_pr__nfet_g5v0d10v5#sbody = 5.622470e-12
m.xm7.msky130_fd_pr__pfet_g5v0d10v5#body = 2.500000e+00
m.xm7.msky130_fd_pr__pfet_g5v0d10v5#dbody = 2.500000e+00
m.xm7.msky130_fd_pr__pfet_g5v0d10v5#sbody = 2.500000e+00
m.xm8.msky130_fd_pr__pfet_g5v0d10v5#body = 2.500000e+00
m.xm8.msky130_fd_pr__pfet_g5v0d10v5#dbody = 2.500000e+00
m.xm8.msky130_fd_pr__pfet_g5v0d10v5#sbody = 2.500000e+00
m.xm9.msky130_fd_pr__nfet_g5v0d10v5#body = 2.158366e-11
m.xm9.msky130_fd_pr__nfet_g5v0d10v5#dbody = 4.674055e-11
m.xm9.msky130_fd_pr__nfet_g5v0d10v5#sbody = 1.801043e-11
m.xm10.msky130_fd_pr__nfet_g5v0d10v5#body = 2.141120e-11
m.xm10.msky130_fd_pr__nfet_g5v0d10v5#dbody = 4.630940e-11
m.xm10.msky130_fd_pr__nfet_g5v0d10v5#sbody = 1.792420e-11
m.xm11.msky130_fd_pr__pfet_g5v0d10v5#body = 2.500000e+00
m.xm11.msky130_fd_pr__pfet_g5v0d10v5#dbody = 2.500000e+00
m.xm11.msky130_fd_pr__pfet_g5v0d10v5#sbody = 2.500000e+00
m.xm12.msky130_fd_pr__pfet_g5v0d10v5#body = 2.500000e+00
m.xm12.msky130_fd_pr__pfet_g5v0d10v5#dbody = 2.500000e+00
m.xm12.msky130_fd_pr__pfet_g5v0d10v5#sbody = 2.500000e+00
m.xm13.msky130_fd_pr__nfet_g5v0d10v5#body = 3.607943e-12
m.xm13.msky130_fd_pr__nfet_g5v0d10v5#dbody = 9.019847e-12
m.xm13.msky130_fd_pr__nfet_g5v0d10v5#sbody = 1.803982e-12
m.xm14.msky130_fd_pr__pfet_g5v0d10v5#body = 2.500000e+00
m.xm14.msky130_fd_pr__pfet_g5v0d10v5#dbody = 2.500000e+00
m.xm14.msky130_fd_pr__pfet_g5v0d10v5#sbody = 2.500000e+00
m.xm15.msky130_fd_pr__nfet_g5v0d10v5#body = 7.518826e-16
m.xm15.msky130_fd_pr__nfet_g5v0d10v5#dbody = 1.879641e-15
m.xm15.msky130_fd_pr__nfet_g5v0d10v5#sbody = 3.760073e-16
m.xm16.msky130_fd_pr__nfet_g5v0d10v5#body = 4.644519e-11
m.xm16.msky130_fd_pr__nfet_g5v0d10v5#dbody = 8.573124e-11
m.xm16.msky130_fd_pr__nfet_g5v0d10v5#sbody = 5.360432e-11
m.xm17.msky130_fd_pr__pfet_g5v0d10v5#body = 2.500000e+00
m.xm17.msky130_fd_pr__pfet_g5v0d10v5#dbody = 2.500000e+00
m.xm17.msky130_fd_pr__pfet_g5v0d10v5#sbody = 2.500000e+00
m.xm18.msky130_fd_pr__nfet_g5v0d10v5#body = 1.876832e-11
m.xm18.msky130_fd_pr__nfet_g5v0d10v5#dbody = 4.689746e-11
m.xm18.msky130_fd_pr__nfet_g5v0d10v5#sbody = 9.384170e-12
m.xm19.msky130_fd_pr__nfet_g5v0d10v5#body = 2.096311e-11
m.xm19.msky130_fd_pr__nfet_g5v0d10v5#dbody = 4.436954e-11
m.xm19.msky130_fd_pr__nfet_g5v0d10v5#sbody = 1.851978e-11
m.xm20.msky130_fd_pr__nfet_g5v0d10v5#body = 1.126437e-11
m.xm20.msky130_fd_pr__nfet_g5v0d10v5#dbody = 2.816090e-11
m.xm20.msky130_fd_pr__nfet_g5v0d10v5#sbody = 5.632195e-12
m.xm22.msky130_fd_pr__nfet_g5v0d10v5#body = 4.021828e-12
m.xm22.msky130_fd_pr__nfet_g5v0d10v5#dbody = 1.005456e-11
m.xm22.msky130_fd_pr__nfet_g5v0d10v5#sbody = 2.010918e-12
m.xm24.msky130_fd_pr__pfet_g5v0d10v5#body = 2.500000e+00
m.xm24.msky130_fd_pr__pfet_g5v0d10v5#dbody = 2.500000e+00
m.xm24.msky130_fd_pr__pfet_g5v0d10v5#sbody = 2.500000e+00
m.xm26.msky130_fd_pr__pfet_g5v0d10v5#body = 2.500000e+00
m.xm26.msky130_fd_pr__pfet_g5v0d10v5#dbody = 2.500000e+00
m.xm26.msky130_fd_pr__pfet_g5v0d10v5#sbody = 2.500000e+00
mir = 1.354777e+00
net1 = 7.192281e-01
net2 = 5.785683e-05
net3 = 7.788940e-01
net4 = 3.211832e-01
net5 = 1.355173e+00
net6 = 8.990313e-01
net7 = 7.788909e-01
net8 = 1.423915e+00
net9 = 1.437711e+00
net10 = 2.885066e-01
net11 = 1.500404e+00
net12 = 1.500404e+00
net13 = 0.000000e+00
out = 1.500404e+00
pos = 1.187678e+00
q.xq2.qsky130_fd_pr__pnp_05v5_w0p68l0p68#collcx = 2.150240e-03
q.xq3.qsky130_fd_pr__pnp_05v5_w0p68l0p68#collcx = 2.700846e-04
q.xq4.qsky130_fd_pr__pnp_05v5_w0p68l0p68#collcx = 2.700846e-04
q.xq8.qsky130_fd_pr__pnp_05v5_w0p68l0p68#collcx = 2.700846e-04
q.xq10.qsky130_fd_pr__pnp_05v5_w0p68l0p68#collcx = 2.700846e-04
q.xq12.qsky130_fd_pr__pnp_05v5_w0p68l0p68#collcx = 2.700846e-04
q.xq14.qsky130_fd_pr__pnp_05v5_w0p68l0p68#collcx = 2.700846e-04
q.xq16.qsky130_fd_pr__pnp_05v5_w0p68l0p68#collcx = 2.700846e-04
q.xq18.qsky130_fd_pr__pnp_05v5_w0p68l0p68#collcx = 2.700846e-04
vb = 9.010203e-01
vdd = 2.500000e+00
vs#branch = -1.00426e-02
vt#branch = 0.000000e+00
xc1.a = 0.000000e+00
xc1.b1 = 0.000000e+00
xc3.a = 1.500404e+00
xc3.b1 = 1.500404e+00
xr1.xsky130_fd_pr__res_xhigh_po_0p69.ra = 7.864071e-01
xr2.xsky130_fd_pr__res_xhigh_po_0p69.ra = 7.864101e-01
xr3.xsky130_fd_pr__res_xhigh_po_0p69.ra = 5.068654e-03
xr4.xsky130_fd_pr__res_xhigh_po_0p69.ra = 7.217714e-01
xr5.xsky130_fd_pr__res_xhigh_po_0p69.ra = 5.068632e-03
xr6.xsky130_fd_pr__res_xhigh_po_0p69.ra = 7.985908e-03
xr7.xsky130_fd_pr__res_xhigh_po_0p69.ra = 1.500404e+00
xr8.xsky130_fd_pr__res_xhigh_po_0p69.ra = 1.200967e+00
xr9.xsky130_fd_pr__res_xhigh_po_0p69.ra = 1.393424e-02
Doing analysis at TEMP = 27.000000 and TNOM = 27.000000


No. of Data Rows : 91
Note: Starting true gmin stepping
Trying gmin =   1.0000E-03 Note: One successful gmin step
Trying gmin =   1.0000E-04 Note: One successful gmin step
Trying gmin =   1.0000E-05 Note: One successful gmin step
Trying gmin =   1.0000E-06 Note: One successful gmin step
Trying gmin =   1.0000E-07 Note: One successful gmin step
Trying gmin =   1.0000E-08 Warning: Further gmin increment
Trying gmin =   5.6234E-08 Note: One successful gmin step
Trying gmin =   2.3714E-08 Warning: Further gmin increment
Trying gmin =   4.5316E-08 Note: One successful gmin step
Trying gmin =   3.2781E-08 Warning: Further gmin increment
Trying gmin =   4.1792E-08 Note: One successful gmin step
Trying gmin =   3.7013E-08 Warning: Further gmin increment
Trying gmin =   4.0542E-08 Note: One successful gmin step
Trying gmin =   3.8738E-08 Warning: Further gmin increment
Trying gmin =   4.0084E-08 Note: One successful gmin step
Trying gmin =   3.9405E-08 Warning: Further gmin increment
Trying gmin =   3.9913E-08 Note: One successful gmin step
Trying gmin =   3.9658E-08 Note: One successful gmin step
Trying gmin =   3.9279E-08 Warning: Further gmin increment
Trying gmin =   3.9563E-08 Warning: Further gmin increment
Trying gmin =   3.9634E-08 Note: One successful gmin step
Trying gmin =   3.9599E-08 Warning: Further gmin increment
Trying gmin =   3.9625E-08 Note: One successful gmin step
Trying gmin =   3.9612E-08 Warning: Further gmin increment
Trying gmin =   3.9622E-08 Note: One successful gmin step
Trying gmin =   3.9617E-08 Note: One successful gmin step
Trying gmin =   3.9609E-08 Warning: Further gmin increment
Trying gmin =   3.9615E-08 Note: One successful gmin step
Trying gmin =   3.9612E-08 Warning: Further gmin increment
Trying gmin =   3.9614E-08 Note: One successful gmin step
Trying gmin =   3.9614E-08 Warning: Last gmin step failed
Error: -1.63502e+185, 2 out of range for ^
Warning: True gmin stepping failed
Note: Starting dynamic gmin stepping
Trying gmin =   1.0000E-03 Note: One successful gmin step
Trying gmin =   1.0000E-04 Note: One successful gmin step
Trying gmin =   1.0000E-05 Warning: Further gmin increment
Trying gmin =   5.6234E-05 Note: One successful gmin step
Trying gmin =   2.3714E-05 Note: One successful gmin step
Trying gmin =   6.4938E-06 Warning: Further gmin increment
Trying gmin =   1.7154E-05 Note: One successful gmin step
Trying gmin =   1.0554E-05 Warning: Further gmin increment
Trying gmin =   1.5193E-05 Note: One successful gmin step
Trying gmin =   1.2663E-05 Warning: Further gmin increment
Trying gmin =   1.4517E-05 Note: One successful gmin step
Trying gmin =   1.3558E-05 Note: One successful gmin step
Trying gmin =   1.2238E-05 Note: One successful gmin step
Trying gmin =   1.0495E-05 Note: One successful gmin step
Trying gmin =   8.3340E-06 Note: One successful gmin step
Trying gmin =   5.8977E-06 Note: One successful gmin step
Trying gmin =   3.5110E-06 Note: One successful gmin step
Trying gmin =   1.6127E-06 Warning: Further gmin increment
Trying gmin =   2.8904E-06 Note: One successful gmin step
Trying gmin =   2.1590E-06 Note: One successful gmin step
Trying gmin =   1.3938E-06 Warning: Further gmin increment
Trying gmin =   1.9353E-06 Note: One successful gmin step
Trying gmin =   1.6424E-06 Warning: Further gmin increment
Trying gmin =   1.8575E-06 Note: One successful gmin step
Trying gmin =   1.7466E-06 Note: One successful gmin step
Trying gmin =   1.5926E-06 Warning: Further gmin increment
Trying gmin =   1.7068E-06 Note: One successful gmin step
Trying gmin =   1.6487E-06 Note: One successful gmin step
Trying gmin =   1.5653E-06 Note: One successful gmin step
Trying gmin =   1.4480E-06 Note: One successful gmin step
Trying gmin =   1.2883E-06 Note: One successful gmin step
Trying gmin =   1.0812E-06 Note: One successful gmin step
Trying gmin =   8.3128E-07 Note: One successful gmin step
Trying gmin =   5.6041E-07 Note: One successful gmin step
Trying gmin =   3.1020E-07 Note: One successful gmin step
Trying gmin =   1.2774E-07 Note: One successful gmin step
Trying gmin =   3.3758E-08 Note: One successful gmin step
Trying gmin =   4.5862E-09 Note: One successful gmin step
Trying gmin =   4.5862E-10 Note: One successful gmin step
Trying gmin =   4.5862E-11 Note: One successful gmin step
Trying gmin =   4.5862E-12 Note: One successful gmin step
Trying gmin =   1.0000E-12 Note: One successful gmin step
Note: Dynamic gmin stepping completed
 Reference value :  2.80000e+00Note: Starting true gmin stepping
Trying gmin =   1.0000E-03 Note: One successful gmin step
Trying gmin =   1.0000E-04 Note: One successful gmin step
Trying gmin =   1.0000E-05 Note: One successful gmin step
Trying gmin =   1.0000E-06 Note: One successful gmin step
Trying gmin =   1.0000E-07 Note: One successful gmin step
Trying gmin =   1.0000E-08 Warning: Further gmin increment
Trying gmin =   5.6234E-08 Note: One successful gmin step
Trying gmin =   2.3714E-08 Note: One successful gmin step
Trying gmin =   1.0000E-08 Warning: Further gmin increment
Trying gmin =   1.9110E-08 Note: One successful gmin step
Trying gmin =   1.3824E-08 Note: One successful gmin step
Trying gmin =   8.5053E-09 Note: One successful gmin step
Trying gmin =   4.1047E-09 Warning: Further gmin increment
Trying gmin =   7.0890E-09 Note: One successful gmin step
Trying gmin =   5.3943E-09 Warning: Further gmin increment
Trying gmin =   6.6210E-09 Note: One successful gmin step
Trying gmin =   5.9762E-09 Note: One successful gmin step
Trying gmin =   5.1249E-09 Note: One successful gmin step
Trying gmin =   4.0698E-09 Note: One successful gmin step
Trying gmin =   2.8801E-09 Note: One successful gmin step
Trying gmin =   1.7145E-09 Note: One successful gmin step
Trying gmin =   7.8753E-10 Note: One successful gmin step
Trying gmin =   2.4516E-10 Note: One successful gmin step
Trying gmin =   4.2581E-11 Note: One successful gmin step
Trying gmin =   4.2581E-12 Note: One successful gmin step
Trying gmin =   1.0000E-12 Note: One successful gmin step
Note: True gmin stepping completed
 Reference value :  1.26000e+00Error: -7.80774e+172, 2 out of range for ^
Error: -7.80774e+172, 2 out of range for ^
Note: Starting true gmin stepping
Trying gmin =   1.0000E-03 Note: One successful gmin step
Trying gmin =   1.0000E-04 Note: One successful gmin step
Trying gmin =   1.0000E-05 Note: One successful gmin step
Trying gmin =   1.0000E-06 Note: One successful gmin step
Trying gmin =   1.0000E-07 Note: One successful gmin step
Trying gmin =   1.0000E-08 Warning: Further gmin increment
Trying gmin =   5.6234E-08 Note: One successful gmin step
Trying gmin =   2.3714E-08 Note: One successful gmin step
Trying gmin =   6.4938E-09 Warning: Further gmin increment
Trying gmin =   1.7154E-08 Note: One successful gmin step
Trying gmin =   1.0554E-08 Warning: Further gmin increment
Trying gmin =   1.5193E-08 Note: One successful gmin step
Trying gmin =   1.2663E-08 Note: One successful gmin step
Trying gmin =   9.6358E-09 Warning: Further gmin increment
Trying gmin =   1.1827E-08 Note: One successful gmin step
Trying gmin =   1.0675E-08 Note: One successful gmin step
Trying gmin =   9.1546E-09 Note: One successful gmin step
Trying gmin =   7.2699E-09 Note: One successful gmin step
Trying gmin =   5.1447E-09 Warning: Further gmin increment
Trying gmin =   6.6678E-09 Note: One successful gmin step
Trying gmin =   5.8569E-09 Note: One successful gmin step
Trying gmin =   4.8217E-09 Note: One successful gmin step
Trying gmin =   3.6016E-09 Note: One successful gmin step
Trying gmin =   2.3251E-09 Note: One successful gmin step
Trying gmin =   1.2060E-09 Note: One successful gmin step
Trying gmin =   4.5053E-10 Note: One successful gmin step
Trying gmin =   1.0287E-10 Note: One successful gmin step
Trying gmin =   1.1223E-11 Note: One successful gmin step
Trying gmin =   1.1223E-12 Note: One successful gmin step
Trying gmin =   1.0000E-12 Note: One successful gmin step
Note: True gmin stepping completed
 Reference value :  1.24000e+00pm                  =  -1.103027e+02
Doing analysis at TEMP = 27.000000 and TNOM = 27.000000


No. of Data Rows : 91
psrr100             =  -8.257403e+01
psrr100k            =  -2.569753e+01
Doing analysis at TEMP = 27.000000 and TNOM = 27.000000


No. of Data Rows : 86
temp_coeff = 8.257328e+01
Doing analysis at TEMP = 27.000000 and TNOM = 27.000000


No. of Data Rows : 141
vldo_sup_2          =  1.785759e+00
vldo_sup_2_8        =  1.785705e+00
line_reg = 6.750000e-05
Note: No ".plot", ".print", or ".fourier" lines; no simulations run
vin                 =  1.778486e+00
dropout = 1.448600e-02
