 Reference value :  0.00000e+00
No compatibility mode selected!


Circuit: * ldo netlist 

Doing analysis at TEMP = 85.000000 and TNOM = 27.000000


No. of Data Rows : 1
bg_out = 1.203823e+00
inn = 1.154324e+00
inp = 1.154262e+00
l1#branch = 0.000000e+00
ldo_out = 1.811110e+00
m.xm1.msky130_fd_pr__nfet_g5v0d10v5#body = 2.719373e-11
m.xm1.msky130_fd_pr__nfet_g5v0d10v5#dbody = 5.114250e-11
m.xm1.msky130_fd_pr__nfet_g5v0d10v5#sbody = 3.043869e-11
m.xm2.msky130_fd_pr__pfet_g5v0d10v5#body = 2.300000e+00
m.xm2.msky130_fd_pr__pfet_g5v0d10v5#dbody = 2.300000e+00
m.xm2.msky130_fd_pr__pfet_g5v0d10v5#sbody = 2.300000e+00
m.xm3.msky130_fd_pr__pfet_g5v0d10v5#body = 2.300000e+00
m.xm3.msky130_fd_pr__pfet_g5v0d10v5#dbody = 2.300000e+00
m.xm3.msky130_fd_pr__pfet_g5v0d10v5#sbody = 2.300000e+00
m.xm4.msky130_fd_pr__pfet_g5v0d10v5#body = 2.300000e+00
m.xm4.msky130_fd_pr__pfet_g5v0d10v5#dbody = 2.300000e+00
m.xm4.msky130_fd_pr__pfet_g5v0d10v5#sbody = 2.300000e+00
m.xm5.msky130_fd_pr__pfet_g5v0d10v5#body = 2.300000e+00
m.xm5.msky130_fd_pr__pfet_g5v0d10v5#dbody = 2.300000e+00
m.xm5.msky130_fd_pr__pfet_g5v0d10v5#sbody = 2.300000e+00
m.xm6.msky130_fd_pr__nfet_g5v0d10v5#body = 2.031065e-11
m.xm6.msky130_fd_pr__nfet_g5v0d10v5#dbody = 5.077652e-11
m.xm6.msky130_fd_pr__nfet_g5v0d10v5#sbody = 1.015544e-11
m.xm7.msky130_fd_pr__pfet_g5v0d10v5#body = 2.300000e+00
m.xm7.msky130_fd_pr__pfet_g5v0d10v5#dbody = 2.300000e+00
m.xm7.msky130_fd_pr__pfet_g5v0d10v5#sbody = 2.300000e+00
m.xm8.msky130_fd_pr__pfet_g5v0d10v5#body = 2.300000e+00
m.xm8.msky130_fd_pr__pfet_g5v0d10v5#dbody = 2.300000e+00
m.xm8.msky130_fd_pr__pfet_g5v0d10v5#sbody = 2.300000e+00
m.xm9.msky130_fd_pr__nfet_g5v0d10v5#body = 2.541414e-11
m.xm9.msky130_fd_pr__nfet_g5v0d10v5#dbody = 4.956693e-11
m.xm9.msky130_fd_pr__nfet_g5v0d10v5#sbody = 2.667547e-11
m.xm10.msky130_fd_pr__nfet_g5v0d10v5#body = 2.531692e-11
m.xm10.msky130_fd_pr__nfet_g5v0d10v5#dbody = 4.932389e-11
m.xm10.msky130_fd_pr__nfet_g5v0d10v5#sbody = 2.662686e-11
m.xm11.msky130_fd_pr__pfet_g5v0d10v5#body = 2.300000e+00
m.xm11.msky130_fd_pr__pfet_g5v0d10v5#dbody = 2.300000e+00
m.xm11.msky130_fd_pr__pfet_g5v0d10v5#sbody = 2.300000e+00
m.xm12.msky130_fd_pr__pfet_g5v0d10v5#body = 2.300000e+00
m.xm12.msky130_fd_pr__pfet_g5v0d10v5#dbody = 2.300000e+00
m.xm12.msky130_fd_pr__pfet_g5v0d10v5#sbody = 2.300000e+00
m.xm13.msky130_fd_pr__nfet_g5v0d10v5#body = 5.336998e-12
m.xm13.msky130_fd_pr__nfet_g5v0d10v5#dbody = 1.334243e-11
m.xm13.msky130_fd_pr__nfet_g5v0d10v5#sbody = 2.668566e-12
m.xm14.msky130_fd_pr__pfet_g5v0d10v5#body = 2.300000e+00
m.xm14.msky130_fd_pr__pfet_g5v0d10v5#dbody = 2.300000e+00
m.xm14.msky130_fd_pr__pfet_g5v0d10v5#sbody = 2.300000e+00
m.xm15.msky130_fd_pr__nfet_g5v0d10v5#body = 9.337136e-15
m.xm15.msky130_fd_pr__nfet_g5v0d10v5#dbody = 2.334241e-14
m.xm15.msky130_fd_pr__nfet_g5v0d10v5#sbody = 4.668996e-15
m.xm16.msky130_fd_pr__nfet_g5v0d10v5#body = 5.378538e-11
m.xm16.msky130_fd_pr__nfet_g5v0d10v5#dbody = 9.499902e-11
m.xm16.msky130_fd_pr__nfet_g5v0d10v5#sbody = 6.635712e-11
m.xm17.msky130_fd_pr__pfet_g5v0d10v5#body = 2.300000e+00
m.xm17.msky130_fd_pr__pfet_g5v0d10v5#dbody = 2.300000e+00
m.xm17.msky130_fd_pr__pfet_g5v0d10v5#sbody = 2.300000e+00
m.xm18.msky130_fd_pr__nfet_g5v0d10v5#body = 1.076467e-11
m.xm18.msky130_fd_pr__nfet_g5v0d10v5#dbody = 2.691160e-11
m.xm18.msky130_fd_pr__nfet_g5v0d10v5#sbody = 5.382410e-12
m.xm19.msky130_fd_pr__nfet_g5v0d10v5#body = 2.727878e-11
m.xm19.msky130_fd_pr__nfet_g5v0d10v5#dbody = 5.135511e-11
m.xm19.msky130_fd_pr__nfet_g5v0d10v5#sbody = 3.048121e-11
m.xm20.msky130_fd_pr__nfet_g5v0d10v5#body = 1.431153e-11
m.xm20.msky130_fd_pr__nfet_g5v0d10v5#dbody = 3.577874e-11
m.xm20.msky130_fd_pr__nfet_g5v0d10v5#sbody = 7.155839e-12
m.xm22.msky130_fd_pr__nfet_g5v0d10v5#body = 1.171471e-11
m.xm22.msky130_fd_pr__nfet_g5v0d10v5#dbody = 2.928667e-11
m.xm22.msky130_fd_pr__nfet_g5v0d10v5#sbody = 5.857462e-12
m.xm24.msky130_fd_pr__pfet_g5v0d10v5#body = 2.300000e+00
m.xm24.msky130_fd_pr__pfet_g5v0d10v5#dbody = 2.300000e+00
m.xm24.msky130_fd_pr__pfet_g5v0d10v5#sbody = 2.300000e+00
m.xm26.msky130_fd_pr__pfet_g5v0d10v5#body = 2.300000e+00
m.xm26.msky130_fd_pr__pfet_g5v0d10v5#dbody = 2.300000e+00
m.xm26.msky130_fd_pr__pfet_g5v0d10v5#sbody = 2.300000e+00
mir = 1.077572e+00
net1 = 6.369195e-01
net2 = 1.799784e-05
net3 = 7.100077e-01
net4 = 2.496517e-01
net5 = 1.084376e+00
net6 = 9.369510e-01
net7 = 7.099443e-01
net8 = 1.174186e+00
net9 = 1.181964e+00
net10 = 2.664013e-01
net11 = 7.005619e-01
net12 = 7.005619e-01
net13 = 0.000000e+00
out = 7.005619e-01
pos = 1.203913e+00
q.xq2.qsky130_fd_pr__pnp_05v5_w0p68l0p68#collcx = 2.806666e-03
q.xq3.qsky130_fd_pr__pnp_05v5_w0p68l0p68#collcx = 3.570152e-04
q.xq4.qsky130_fd_pr__pnp_05v5_w0p68l0p68#collcx = 3.570152e-04
q.xq8.qsky130_fd_pr__pnp_05v5_w0p68l0p68#collcx = 3.570152e-04
q.xq10.qsky130_fd_pr__pnp_05v5_w0p68l0p68#collcx = 3.570152e-04
q.xq12.qsky130_fd_pr__pnp_05v5_w0p68l0p68#collcx = 3.570152e-04
q.xq14.qsky130_fd_pr__pnp_05v5_w0p68l0p68#collcx = 3.570152e-04
q.xq16.qsky130_fd_pr__pnp_05v5_w0p68l0p68#collcx = 3.570152e-04
q.xq18.qsky130_fd_pr__pnp_05v5_w0p68l0p68#collcx = 3.570152e-04
vb = 9.843102e-01
vdd = 2.300000e+00
vs#branch = -1.00754e-01
vt#branch = 0.000000e+00
xc1.a = 0.000000e+00
xc1.b1 = 0.000000e+00
xc3.a = 7.005619e-01
xc3.b1 = 7.005619e-01
xr1.xsky130_fd_pr__res_xhigh_po_0p69.ra = 7.157766e-01
xr2.xsky130_fd_pr__res_xhigh_po_0p69.ra = 7.158399e-01
xr3.xsky130_fd_pr__res_xhigh_po_0p69.ra = 3.502667e-03
xr4.xsky130_fd_pr__res_xhigh_po_0p69.ra = 6.392838e-01
xr5.xsky130_fd_pr__res_xhigh_po_0p69.ra = 3.502336e-03
xr6.xsky130_fd_pr__res_xhigh_po_0p69.ra = 6.180064e-03
xr7.xsky130_fd_pr__res_xhigh_po_0p69.ra = 7.005619e-01
xr8.xsky130_fd_pr__res_xhigh_po_0p69.ra = 1.214184e+00
xr9.xsky130_fd_pr__res_xhigh_po_0p69.ra = 1.077451e-02
Doing analysis at TEMP = 85.000000 and TNOM = 27.000000


No. of Data Rows : 91
Note: Starting true gmin stepping
Trying gmin =   1.0000E-03 Note: One successful gmin step
Trying gmin =   1.0000E-04 Note: One successful gmin step
Trying gmin =   1.0000E-05 Note: One successful gmin step
Trying gmin =   1.0000E-06 Note: One successful gmin step
Trying gmin =   1.0000E-07 Note: One successful gmin step
Trying gmin =   1.0000E-08 Note: One successful gmin step
Trying gmin =   1.0000E-09 Note: One successful gmin step
Trying gmin =   1.0000E-10 Note: One successful gmin step
Trying gmin =   1.0000E-11 Note: One successful gmin step
Trying gmin =   1.0000E-12 Note: One successful gmin step
Trying gmin =   1.0000E-12 Note: One successful gmin step
Note: True gmin stepping completed
 Reference value :  1.20000e+00Note: Starting true gmin stepping
Trying gmin =   1.0000E-03 Note: One successful gmin step
Trying gmin =   1.0000E-04 Note: One successful gmin step
Trying gmin =   1.0000E-05 Note: One successful gmin step
Trying gmin =   1.0000E-06 Note: One successful gmin step
Trying gmin =   1.0000E-07 Note: One successful gmin step
Trying gmin =   1.0000E-08 Note: One successful gmin step
Trying gmin =   1.0000E-09 Note: One successful gmin step
Trying gmin =   1.0000E-10 Note: One successful gmin step
Trying gmin =   1.0000E-11 Note: One successful gmin step
Trying gmin =   1.0000E-12 Note: One successful gmin step
Trying gmin =   1.0000E-12 Note: One successful gmin step
Note: True gmin stepping completed
pm                  =  1.231747e+02
Doing analysis at TEMP = 85.000000 and TNOM = 27.000000


No. of Data Rows : 91
psrr100             =  -4.920239e+01
psrr100k            =  -2.255285e+01
Doing analysis at TEMP = 85.000000 and TNOM = 27.000000


No. of Data Rows : 86
temp_coeff = 1.480603e+02
Doing analysis at TEMP = 85.000000 and TNOM = 27.000000


No. of Data Rows : 141
vldo_sup_2          =  1.779837e+00
vldo_sup_2_8        =  1.812014e+00
line_reg = 4.022125e-02
Note: No ".plot", ".print", or ".fourier" lines; no simulations run
vin                 =  1.985230e+00
dropout = 2.212300e-01
