Note: Starting true gmin stepping
Trying gmin =   1.0000E-03 Note: One successful gmin step
Trying gmin =   1.0000E-04 Note: One successful gmin step
Trying gmin =   1.0000E-05 Note: One successful gmin step
Trying gmin =   1.0000E-06 Note: One successful gmin step
Trying gmin =   1.0000E-07 Note: One successful gmin step
Trying gmin =   1.0000E-08 Warning: Further gmin increment
Trying gmin =   5.6234E-08 Warning: Further gmin increment
Trying gmin =   8.6596E-08 Warning: Further gmin increment
Trying gmin =   9.6466E-08 Note: One successful gmin step
Trying gmin =   9.3057E-08 Note: One successful gmin step
Trying gmin =   8.8168E-08 Note: One successful gmin step
Trying gmin =   8.1312E-08 Note: One successful gmin step
Trying gmin =   7.2015E-08 Note: One successful gmin step
Trying gmin =   6.0023E-08 Note: One successful gmin step
Trying gmin =   4.5674E-08 Note: One successful gmin step
Trying gmin =   3.0317E-08 Note: One successful gmin step
Trying gmin =   1.6395E-08 Note: One successful gmin step
Trying gmin =   6.5203E-09 Note: One successful gmin step
Trying gmin =   1.6353E-09 Note: One successful gmin step
Trying gmin =   2.0539E-10 Note: One successful gmin step
Trying gmin =   2.0539E-11 Note: One successful gmin step
Trying gmin =   2.0539E-12 Note: One successful gmin step
Trying gmin =   1.0000E-12 Note: One successful gmin step
Note: True gmin stepping completed
 Reference value :  0.00000e+00
No compatibility mode selected!


Circuit: * ldo netlist 

Doing analysis at TEMP = 0.000000 and TNOM = 27.000000


No. of Data Rows : 1
bg_out = 1.101564e+00
inn = 1.186385e+00
inp = 1.186336e+00
l1#branch = 0.000000e+00
ldo_out = 1.811203e+00
m.xm1.msky130_fd_pr__nfet_g5v0d10v5#body = 1.715692e-11
m.xm1.msky130_fd_pr__nfet_g5v0d10v5#dbody = 3.784895e-11
m.xm1.msky130_fd_pr__nfet_g5v0d10v5#sbody = 1.362180e-11
m.xm2.msky130_fd_pr__pfet_g5v0d10v5#body = 2.500000e+00
m.xm2.msky130_fd_pr__pfet_g5v0d10v5#dbody = 2.500000e+00
m.xm2.msky130_fd_pr__pfet_g5v0d10v5#sbody = 2.500000e+00
m.xm3.msky130_fd_pr__pfet_g5v0d10v5#body = 2.500000e+00
m.xm3.msky130_fd_pr__pfet_g5v0d10v5#dbody = 2.500000e+00
m.xm3.msky130_fd_pr__pfet_g5v0d10v5#sbody = 2.500000e+00
m.xm4.msky130_fd_pr__pfet_g5v0d10v5#body = 2.500000e+00
m.xm4.msky130_fd_pr__pfet_g5v0d10v5#dbody = 2.500000e+00
m.xm4.msky130_fd_pr__pfet_g5v0d10v5#sbody = 2.500000e+00
m.xm5.msky130_fd_pr__pfet_g5v0d10v5#body = 2.500000e+00
m.xm5.msky130_fd_pr__pfet_g5v0d10v5#dbody = 2.500000e+00
m.xm5.msky130_fd_pr__pfet_g5v0d10v5#sbody = 2.500000e+00
m.xm6.msky130_fd_pr__nfet_g5v0d10v5#body = 1.254898e-11
m.xm6.msky130_fd_pr__nfet_g5v0d10v5#dbody = 3.137244e-11
m.xm6.msky130_fd_pr__nfet_g5v0d10v5#sbody = 6.274494e-12
m.xm7.msky130_fd_pr__pfet_g5v0d10v5#body = 2.500000e+00
m.xm7.msky130_fd_pr__pfet_g5v0d10v5#dbody = 2.500000e+00
m.xm7.msky130_fd_pr__pfet_g5v0d10v5#sbody = 2.500000e+00
m.xm8.msky130_fd_pr__pfet_g5v0d10v5#body = 2.500000e+00
m.xm8.msky130_fd_pr__pfet_g5v0d10v5#dbody = 2.500000e+00
m.xm8.msky130_fd_pr__pfet_g5v0d10v5#sbody = 2.500000e+00
m.xm9.msky130_fd_pr__nfet_g5v0d10v5#body = 1.757067e-11
m.xm9.msky130_fd_pr__nfet_g5v0d10v5#dbody = 4.064560e-11
m.xm9.msky130_fd_pr__nfet_g5v0d10v5#sbody = 1.206641e-11
m.xm10.msky130_fd_pr__nfet_g5v0d10v5#body = 1.716746e-11
m.xm10.msky130_fd_pr__nfet_g5v0d10v5#dbody = 3.963757e-11
m.xm10.msky130_fd_pr__nfet_g5v0d10v5#sbody = 1.186480e-11
m.xm11.msky130_fd_pr__pfet_g5v0d10v5#body = 2.500000e+00
m.xm11.msky130_fd_pr__pfet_g5v0d10v5#dbody = 2.500000e+00
m.xm11.msky130_fd_pr__pfet_g5v0d10v5#sbody = 2.500000e+00
m.xm12.msky130_fd_pr__pfet_g5v0d10v5#body = 2.500000e+00
m.xm12.msky130_fd_pr__pfet_g5v0d10v5#dbody = 2.500000e+00
m.xm12.msky130_fd_pr__pfet_g5v0d10v5#sbody = 2.500000e+00
m.xm13.msky130_fd_pr__nfet_g5v0d10v5#body = 1.640518e-12
m.xm13.msky130_fd_pr__nfet_g5v0d10v5#dbody = 4.101285e-12
m.xm13.msky130_fd_pr__nfet_g5v0d10v5#sbody = 8.202680e-13
m.xm14.msky130_fd_pr__pfet_g5v0d10v5#body = 2.500000e+00
m.xm14.msky130_fd_pr__pfet_g5v0d10v5#dbody = 2.500000e+00
m.xm14.msky130_fd_pr__pfet_g5v0d10v5#sbody = 2.500000e+00
m.xm15.msky130_fd_pr__nfet_g5v0d10v5#body = 1.170818e-15
m.xm15.msky130_fd_pr__nfet_g5v0d10v5#dbody = 2.927009e-15
m.xm15.msky130_fd_pr__nfet_g5v0d10v5#sbody = 5.854435e-16
m.xm16.msky130_fd_pr__nfet_g5v0d10v5#body = 4.607993e-11
m.xm16.msky130_fd_pr__nfet_g5v0d10v5#dbody = 8.554008e-11
m.xm16.msky130_fd_pr__nfet_g5v0d10v5#sbody = 5.269970e-11
m.xm17.msky130_fd_pr__pfet_g5v0d10v5#body = 2.500000e+00
m.xm17.msky130_fd_pr__pfet_g5v0d10v5#dbody = 2.500000e+00
m.xm17.msky130_fd_pr__pfet_g5v0d10v5#sbody = 2.500000e+00
m.xm18.msky130_fd_pr__nfet_g5v0d10v5#body = 1.971885e-11
m.xm18.msky130_fd_pr__nfet_g5v0d10v5#dbody = 4.921868e-11
m.xm18.msky130_fd_pr__nfet_g5v0d10v5#sbody = 9.859436e-12
m.xm19.msky130_fd_pr__nfet_g5v0d10v5#body = 1.724560e-11
m.xm19.msky130_fd_pr__nfet_g5v0d10v5#dbody = 3.807066e-11
m.xm19.msky130_fd_pr__nfet_g5v0d10v5#sbody = 1.366615e-11
m.xm20.msky130_fd_pr__nfet_g5v0d10v5#body = 1.312726e-11
m.xm20.msky130_fd_pr__nfet_g5v0d10v5#dbody = 3.281813e-11
m.xm20.msky130_fd_pr__nfet_g5v0d10v5#sbody = 6.563641e-12
m.xm22.msky130_fd_pr__nfet_g5v0d10v5#body = 2.521708e-12
m.xm22.msky130_fd_pr__nfet_g5v0d10v5#dbody = 6.304266e-12
m.xm22.msky130_fd_pr__nfet_g5v0d10v5#sbody = 1.260859e-12
m.xm24.msky130_fd_pr__pfet_g5v0d10v5#body = 2.500000e+00
m.xm24.msky130_fd_pr__pfet_g5v0d10v5#dbody = 2.500000e+00
m.xm24.msky130_fd_pr__pfet_g5v0d10v5#sbody = 2.500000e+00
m.xm26.msky130_fd_pr__pfet_g5v0d10v5#body = 2.500000e+00
m.xm26.msky130Note: Starting true gmin stepping
Trying gmin =   1.0000E-03 Note: One successful gmin step
Trying gmin =   1.0000E-04 Note: One successful gmin step
Trying gmin =   1.0000E-05 Note: One successful gmin step
Trying gmin =   1.0000E-06 Note: One successful gmin step
Trying gmin =   1.0000E-07 Note: One successful gmin step
Trying gmin =   1.0000E-08 Warning: Further gmin increment
Trying gmin =   5.6234E-08 Warning: Further gmin increment
Trying gmin =   8.6596E-08 Warning: Further gmin increment
Trying gmin =   9.6466E-08 Note: One successful gmin step
Trying gmin =   9.3057E-08 Note: One successful gmin step
Trying gmin =   8.8168E-08 Note: One successful gmin step
Trying gmin =   8.1312E-08 Note: One successful gmin step
Trying gmin =   7.2015E-08 Note: One successful gmin step
Trying gmin =   6.0023E-08 Note: One successful gmin step
Trying gmin =   4.5674E-08 Note: One successful gmin step
Trying gmin =   3.0317E-08 Note: One successful gmin step
Trying gmin =   1.6395E-08 Note: One successful gmin step
Trying gmin =   6.5203E-09 Note: One successful gmin step
Trying gmin =   1.6353E-09 Note: One successful gmin step
Trying gmin =   2.0539E-10 Note: One successful gmin step
Trying gmin =   2.0539E-11 Note: One successful gmin step
Trying gmin =   2.0539E-12 Note: One successful gmin step
Trying gmin =   1.0000E-12 Note: One successful gmin step
Note: True gmin stepping completed
_fd_pr__pfet_g5v0d10v5#dbody = 2.500000e+00
m.xm26.msky130_fd_pr__pfet_g5v0d10v5#sbody = 2.500000e+00
mir = 1.170815e+00
net1 = 7.757192e-01
net2 = 9.360983e-05
net3 = 8.292159e-01
net4 = 2.017290e-01
net5 = 1.177910e+00
net6 = 1.003911e+00
net7 = 8.291664e-01
net8 = 1.242150e+00
net9 = 1.274407e+00
net10 = 1.312396e-01
net11 = 1.574369e+00
net12 = 1.574369e+00
net13 = 0.000000e+00
out = 1.574369e+00
pos = 1.101828e+00
q.xq2.qsky130_fd_pr__pnp_05v5_w0p68l0p68#collcx = 1.780432e-03
q.xq3.qsky130_fd_pr__pnp_05v5_w0p68l0p68#collcx = 2.255524e-04
q.xq4.qsky130_fd_pr__pnp_05v5_w0p68l0p68#collcx = 2.255524e-04
q.xq8.qsky130_fd_pr__pnp_05v5_w0p68l0p68#collcx = 2.255524e-04
q.xq10.qsky130_fd_pr__pnp_05v5_w0p68l0p68#collcx = 2.255524e-04
q.xq12.qsky130_fd_pr__pnp_05v5_w0p68l0p68#collcx = 2.255524e-04
q.xq14.qsky130_fd_pr__pnp_05v5_w0p68l0p68#collcx = 2.255524e-04
q.xq16.qsky130_fd_pr__pnp_05v5_w0p68l0p68#collcx = 2.255524e-04
q.xq18.qsky130_fd_pr__pnp_05v5_w0p68l0p68#collcx = 2.255524e-04
vb = 1.050179e+00
vdd = 2.500000e+00
vs#branch = -1.76768e-04
vt#branch = 0.000000e+00
xc1.a = 0.000000e+00
xc1.b1 = 0.000000e+00
xc3.a = 1.574369e+00
xc3.b1 = 1.574369e+00
xr1.xsky130_fd_pr__res_xhigh_po_0p69.ra = 8.320319e-01
xr2.xsky130_fd_pr__res_xhigh_po_0p69.ra = 8.320813e-01
xr3.xsky130_fd_pr__res_xhigh_po_0p69.ra = 2.094874e-03
xr4.xsky130_fd_pr__res_xhigh_po_0p69.ra = 7.765557e-01
xr5.xsky130_fd_pr__res_xhigh_po_0p69.ra = 2.094740e-03
xr6.xsky130_fd_pr__res_xhigh_po_0p69.ra = 3.047306e-03
xr7.xsky130_fd_pr__res_xhigh_po_0p69.ra = 1.574369e+00
xr8.xsky130_fd_pr__res_xhigh_po_0p69.ra = 1.106457e+00
xr9.xsky130_fd_pr__res_xhigh_po_0p69.ra = 4.778407e-03
Doing analysis at TEMP = 0.000000 and TNOM = 27.000000


No. of Data Rows : 91
Note: Starting true gmin stepping
Trying gmin =   1.0000E-03 Note: One successful gmin step
Trying gmin =   1.0000E-04 Note: One successful gmin step
Trying gmin =   1.0000E-05 Note: One successful gmin step
Trying gmin =   1.0000E-06 Note: One successful gmin step
Trying gmin =   1.0000E-07 Note: One successful gmin step
Trying gmin =   1.0000E-08 Warning: Further gmin increment
Trying gmin =   5.6234E-08 Warning: Further gmin increment
Trying gmin =   8.6596E-08 Warning: Further gmin increment
Trying gmin =   9.6466E-08 Note: One successful gmin step
Trying gmin =   9.3057E-08 Note: One successful gmin step
Trying gmin =   8.8168E-08 Note: One successful gmin step
Trying gmin =   8.1312E-08 Note: One successful gmin step
Trying gmin =   7.2015E-08 Note: One successful gmin step
Trying gmin =   6.0023E-08 Note: One successful gmin step
Trying gmin =   4.5674E-08 Note: One successful gmin step
Trying gmin =   3.0317E-08 Note: One successful gmin step
Trying gmin =   1.6395E-08 Note: One successful gmin step
Trying gmin =   6.5203E-09 Note: One successful gmin step
Trying gmin =   1.6353E-09 Note: One successful gmin step
Trying gmin =   2.0539E-10 Note: One successful gmin step
Trying gmin =   2.0539E-11 Note: One successful gmin step
Trying gmin =   2.0539E-12 Note: One successful gmin step
Trying gmin =   1.0000E-12 Note: One successful gmin step
Note: True gmin stepping completed
 Reference value :  1.00000e+00Note: Starting true gmin stepping
Trying gmin =   1.0000E-03 Note: One successful gmin step
Trying gmin =   1.0000E-04 Note: One successful gmin step
Trying gmin =   1.0000E-05 Note: One successful gmin step
Trying gmin =   1.0000E-06 Note: One successful gmin step
Trying gmin =   1.0000E-07 Warning: Further gmin increment
Trying gmin =   5.6234E-07 Note: One successful gmin step
Trying gmin =   2.3714E-07 Note: One successful gmin step
Trying gmin =   1.0000E-07 Note: One successful gmin step
Trying gmin =   2.7384E-08 Warning: Further gmin increment
Trying gmin =   7.2339E-08 Warning: Further gmin increment
Trying gmin =   9.2224E-08 Note: One successful gmin step
Trying gmin =   8.1679E-08 Note: One successful gmin step
Trying gmin =   6.8078E-08 Warning: Further gmin increment
Trying gmin =   7.8043E-08 Note: One successful gmin step
Trying gmin =   7.2890E-08 Warning: Further gmin increment
Trying gmin =   7.6722E-08 Note: One successful gmin step
Trying gmin =   7.4782E-08 Note: One successful gmin step
Trying gmin =   7.2890E-08 Note: One successful gmin step
Trying gmin =   7.0143E-08 Note: One successful gmin step
Trying gmin =   6.6215E-08 Note: One successful gmin step
Trying gmin =   6.0732E-08 Note: One successful gmin step
Trying gmin =   5.3346E-08 Note: One successful gmin step
Trying gmin =   4.3917E-08 Note: One successful gmin step
Trying gmin =   3.2804E-08 Note: One successful gmin step
Trying gmin =   2.1177E-08 Note: One successful gmin step
Trying gmin =   1.0985E-08 Note: One successful gmin step
Trying gmin =   4.1035E-09 Note: One successful gmin step
Trying gmin =   9.3692E-10 Note: One successful gmin step
Trying gmin =   1.0222E-10 Note: One successful gmin step
Trying gmin =   1.0222E-11 Note: One successful gmin step
Trying gmin =   1.0222E-12 Note: One successful gmin step
Trying gmin =   1.0000E-12 Note: One successful gmin step
Note: True gmin stepping completed
 Reference value :  2.80000e+00Note: Starting true gmin stepping
Trying gmin =   1.0000E-03 Note: One successful gmin step
Trying gmin =   1.0000E-04 Note: One successful gmin step
Trying gmin =   1.0000E-05 Note: One successful gmin step
Trying gmin =   1.0000E-06 Note: One successful gmin step
Trying gmin =   1.0000E-07 Note: One successful gmin step
Trying gmin =   1.0000E-08 Warning: Further gmin increment
Trying gmin =   5.6234E-08 Note: One successful gmin step
Trying gmin =   2.3714E-08 Note: One successful gmin step
Trying gmin =   6.4938E-09 Note: One successful gmin step
Trying gmin =   9.3057E-10 Warning: Further gmin increment
Trying gmin =   3.9954E-09 Note: One successful gmin step
Trying gmin =   1.9282E-09 Note: One successful gmin step
Trying gmin =   6.4647E-10 Note: One successful gmin step
Trying gmin =   1.2550E-10 Warning: Further gmin increment
Trying gmin =   4.2911E-10 Note: One successful gmin step
Trying gmin =   2.3206E-10 Warning: Further gmin increment
Trying gmin =   3.6798E-10 Note: One successful gmin step
Trying gmin =   2.9222E-10 Note: One successful gmin step
Trying gmin =   2.0680E-10 Warning: Further gmin increment
Trying gmin =   2.6802E-10 Note: One successful gmin step
Trying gmin =   2.3543E-10 Note: One successful gmin step
Trying gmin =   1.9381E-10 Warning: Further gmin increment
Trying gmin =   2.2425E-10 Warning: Further gmin increment
Trying gmin =   2.3258E-10 Warning: Further gmin increment
Trying gmin =   2.3471E-10 Note: One successful gmin step
Trying gmin =   2.3365E-10 Warning: Further gmin increment
Trying gmin =   2.3445E-10 Note: One successful gmin step
Trying gmin =   2.3405E-10 Warning: Further gmin increment
Trying gmin =   2.3435E-10 Warning: Further gmin increment
Trying gmin =   2.3442E-10 Note: One successful gmin step
Trying gmin =   2.3438E-10 Note: One successful gmin step
Trying gmin =   2.3433E-10 Warning: Further gmin increment
Trying gmin =   2.3437E-10 Note: One successful gmin step
Trying gmin =   2.3435E-10 Warning: Further gmin increment
Trying gmin =   2.3436E-10 Note: One successful gmin step
Trying gmin =   2.3435E-10 Note: One successful gmin step
Trying gmin =   2.3433E-10 Note: One successful gmin step
Trying gmin =   2.3431E-10 Note: One successful gmin step
Trying gmin =   2.3427E-10 Note: One successful gmin step
Trying gmin =   2.3421E-10 Note: One successful gmin step
Trying gmin =   2.3412E-10 Note: One successful gmin step
Trying gmin =   2.3399E-10 Note: One successful gmin step
Trying gmin =   2.3379E-10 Note: One successful gmin step
Trying gmin =   2.3349E-10 Note: One successful gmin step
Trying gmin =   2.3304E-10 Note: One successful gmin step
Trying gmin =   2.3237E-10 Note: One successful gmin step
Trying gmin =   2.3137E-10 Note: One successful gmin step
Trying gmin =   2.2987E-10 Note: One successful gmin step
Trying gmin =   2.2764E-10 Note: One successful gmin step
Trying gmin =   2.2435E-10 Note: One successful gmin step
Trying gmin =   2.1949E-10 Note: One successful gmin step
Trying gmin =   2.1240E-10 Note: One successful gmin step
Trying gmin =   2.0219E-10 Note: One successful gmin step
Trying gmin =   1.8778E-10 Note: One successful gmin step
Trying gmin =   1.6808E-10 Note: One successful gmin step
Trying gmin =   1.4234E-10 Note: One successful gmin step
Trying gmin =   1.1092E-10 Note: One successful gmin step
Trying gmin =   7.6304E-11 Note: One successful gmin step
Trying gmin =   4.3537E-11 Note: One successful gmin step
Trying gmin =   1.8764E-11 Note: One successful gmin step
Trying gmin =   5.3090E-12 Note: One successful gmin step
Trying gmin =   1.0000E-12 Note: One successful gmin step
Note: True gmin stepping completed
 Reference value :  1.44000e+00Note: Starting true gmin stepping
Trying gmin =   1.0000E-03 Note: One successful gmin step
Trying gmin =   1.0000E-04 Note: One successful gmin step
Trying gmin =   1.0000E-05 Note: One successful gmin step
Trying gmin =   1.0000E-06 Note: One successful gmin step
Trying gmin =   1.0000E-07 Note: One successful gmin step
Trying gmin =   1.0000E-08 Warning: Further gmin increment
Trying gmin =   5.6234E-08 Note: One successful gmin step
Trying gmin =   2.3714E-08 Note: One successful gmin step
Trying gmin =   6.4938E-09 Note: One successful gmin step
Trying gmin =   9.3057E-10 Note: One successful gmin step
Trying gmin =   9.3057E-11 Warning: Further gmin increment
Trying gmin =   5.2330E-10 Note: One successful gmin step
Trying gmin =   2.2067E-10 Note: One successful gmin step
Trying gmin =   6.0430E-11 Warning: Further gmin increment
Trying gmin =   1.5963E-10 Warning: Further gmin increment
Trying gmin =   2.0351E-10 Note: One successful gmin step
Trying gmin =   1.8024E-10 Note: One successful gmin step
Trying gmin =   1.5023E-10 Warning: Further gmin increment
Trying gmin =   1.7222E-10 Note: One successful gmin step
Trying gmin =   1.6085E-10 Warning: Further gmin increment
Trying gmin =   1.6930E-10 Warning: Further gmin increment
Trying gmin =   1.7149E-10 Note: One successful gmin step
Trying gmin =   1.7039E-10 Warning: Further gmin increment
Trying gmin =   1.7121E-10 Note: One successful gmin step
Trying gmin =   1.7080E-10 Warning: Further gmin increment
Trying gmin =   1.7111E-10 Warning: Further gmin increment
Trying gmin =   1.7119E-10 Note: One successful gmin step
Trying gmin =   1.7116E-10 Note: One successful gmin step
Trying gmin =   1.7112E-10 Note: One successful gmin step
Trying gmin =   1.7106E-10 Note: One successful gmin step
Trying gmin =   1.7098E-10 Note: One successful gmin step
Trying gmin =   1.7085E-10 Note: One successful gmin step
Trying gmin =   1.7065E-10 Note: One successful gmin step
Trying gmin =   1.7036E-10 Note: One successful gmin step
Trying gmin =   1.6993E-10 Note: One successful gmin step
Trying gmin =   1.6927E-10 Note: One successful gmin step
Trying gmin =   1.6830E-10 Note: One successful gmin step
Trying gmin =   1.6685E-10 Note: One successful gmin step
Trying gmin =   1.6470E-10 Note: One successful gmin step
Trying gmin =   1.6152E-10 Note: One successful gmin step
Trying gmin =   1.5687E-10 Note: One successful gmin step
Trying gmin =   1.5015E-10 Note: One successful gmin step
Trying gmin =   1.4060E-10 Note: One successful gmin step
Trying gmin =   1.2740E-10 Note: One successful gmin step
Trying gmin =   1.0989E-10 Note: One successful gmin step
Trying gmin =   8.8029E-11 Note: One successful gmin step
Trying gmin =   6.3115E-11 Note: One successful gmin step
Trying gmin =   3.8318E-11 Note: One successful gmin step
Trying gmin =   1.8126E-11 Note: One successful gmin step
Trying gmin =   5.8973E-12 Note: One successful gmin step
Trying gmin =   1.0944E-12 Note: One successful gmin step
Trying gmin =   1.0000E-12 Note: One successful gmin step
Note: True gmin stepping completed
 Reference value :  1.42000e+00pm                  =  6.183314e+01
Doing analysis at TEMP = 0.000000 and TNOM = 27.000000


No. of Data Rows : 91
psrr100             =  -6.036309e+01
psrr100k            =  -2.855576e+01
Doing analysis at TEMP = 0.000000 and TNOM = 27.000000


No. of Data Rows : 86
temp_coeff = 7.831946e+01
Doing analysis at TEMP = 0.000000 and TNOM = 27.000000


No. of Data Rows : 141
vldo_sup_2          =  1.811804e+00
vldo_sup_2_8        =  1.810963e+00
line_reg = 1.051250e-03
Note: No ".plot", ".print", or ".fourier" lines; no simulations run
vin                 =  1.764146e+00
dropout = 1.460000e-04
