 Reference value :  0.00000e+00
No compatibility mode selected!


Circuit: * ldo netlist 

Doing analysis at TEMP = 85.000000 and TNOM = 27.000000


No. of Data Rows : 1
bg_out = 1.196804e+00
inn = 1.143143e+00
inp = 1.143092e+00
l1#branch = 0.000000e+00
ldo_out = 1.800203e+00
m.xm1.msky130_fd_pr__nfet_g5v0d10v5#body = 2.601648e-11
m.xm1.msky130_fd_pr__nfet_g5v0d10v5#dbody = 4.751971e-11
m.xm1.msky130_fd_pr__nfet_g5v0d10v5#sbody = 3.052974e-11
m.xm2.msky130_fd_pr__pfet_g5v0d10v5#body = 2.100000e+00
m.xm2.msky130_fd_pr__pfet_g5v0d10v5#dbody = 2.100000e+00
m.xm2.msky130_fd_pr__pfet_g5v0d10v5#sbody = 2.100000e+00
m.xm3.msky130_fd_pr__pfet_g5v0d10v5#body = 2.100000e+00
m.xm3.msky130_fd_pr__pfet_g5v0d10v5#dbody = 2.100000e+00
m.xm3.msky130_fd_pr__pfet_g5v0d10v5#sbody = 2.100000e+00
m.xm4.msky130_fd_pr__pfet_g5v0d10v5#body = 2.100000e+00
m.xm4.msky130_fd_pr__pfet_g5v0d10v5#dbody = 2.100000e+00
m.xm4.msky130_fd_pr__pfet_g5v0d10v5#sbody = 2.100000e+00
m.xm5.msky130_fd_pr__pfet_g5v0d10v5#body = 2.100000e+00
m.xm5.msky130_fd_pr__pfet_g5v0d10v5#dbody = 2.100000e+00
m.xm5.msky130_fd_pr__pfet_g5v0d10v5#sbody = 2.100000e+00
m.xm6.msky130_fd_pr__nfet_g5v0d10v5#body = 1.973830e-11
m.xm6.msky130_fd_pr__nfet_g5v0d10v5#dbody = 4.934565e-11
m.xm6.msky130_fd_pr__nfet_g5v0d10v5#sbody = 9.869260e-12
m.xm7.msky130_fd_pr__pfet_g5v0d10v5#body = 2.100000e+00
m.xm7.msky130_fd_pr__pfet_g5v0d10v5#dbody = 2.100000e+00
m.xm7.msky130_fd_pr__pfet_g5v0d10v5#sbody = 2.100000e+00
m.xm8.msky130_fd_pr__pfet_g5v0d10v5#body = 2.100000e+00
m.xm8.msky130_fd_pr__pfet_g5v0d10v5#dbody = 2.100000e+00
m.xm8.msky130_fd_pr__pfet_g5v0d10v5#sbody = 2.100000e+00
m.xm9.msky130_fd_pr__nfet_g5v0d10v5#body = 2.419271e-11
m.xm9.msky130_fd_pr__nfet_g5v0d10v5#dbody = 4.569984e-11
m.xm9.msky130_fd_pr__nfet_g5v0d10v5#sbody = 2.687830e-11
m.xm10.msky130_fd_pr__nfet_g5v0d10v5#body = 2.403649e-11
m.xm10.msky130_fd_pr__nfet_g5v0d10v5#dbody = 4.530927e-11
m.xm10.msky130_fd_pr__nfet_g5v0d10v5#sbody = 2.680019e-11
m.xm11.msky130_fd_pr__pfet_g5v0d10v5#body = 2.100000e+00
m.xm11.msky130_fd_pr__pfet_g5v0d10v5#dbody = 2.100000e+00
m.xm11.msky130_fd_pr__pfet_g5v0d10v5#sbody = 2.100000e+00
m.xm12.msky130_fd_pr__pfet_g5v0d10v5#body = 2.100000e+00
m.xm12.msky130_fd_pr__pfet_g5v0d10v5#dbody = 2.100000e+00
m.xm12.msky130_fd_pr__pfet_g5v0d10v5#sbody = 2.100000e+00
m.xm13.msky130_fd_pr__nfet_g5v0d10v5#body = 5.743419e-12
m.xm13.msky130_fd_pr__nfet_g5v0d10v5#dbody = 1.435848e-11
m.xm13.msky130_fd_pr__nfet_g5v0d10v5#sbody = 2.871774e-12
m.xm14.msky130_fd_pr__pfet_g5v0d10v5#body = 2.100000e+00
m.xm14.msky130_fd_pr__pfet_g5v0d10v5#dbody = 2.100000e+00
m.xm14.msky130_fd_pr__pfet_g5v0d10v5#sbody = 2.100000e+00
m.xm15.msky130_fd_pr__nfet_g5v0d10v5#body = 2.263561e-15
m.xm15.msky130_fd_pr__nfet_g5v0d10v5#dbody = 5.658765e-15
m.xm15.msky130_fd_pr__nfet_g5v0d10v5#sbody = 1.131919e-15
m.xm16.msky130_fd_pr__nfet_g5v0d10v5#body = 5.109375e-11
m.xm16.msky130_fd_pr__nfet_g5v0d10v5#dbody = 8.860134e-11
m.xm16.msky130_fd_pr__nfet_g5v0d10v5#sbody = 6.467992e-11
m.xm17.msky130_fd_pr__pfet_g5v0d10v5#body = 2.100000e+00
m.xm17.msky130_fd_pr__pfet_g5v0d10v5#dbody = 2.100000e+00
m.xm17.msky130_fd_pr__pfet_g5v0d10v5#sbody = 2.100000e+00
m.xm18.msky130_fd_pr__nfet_g5v0d10v5#body = 1.558666e-11
m.xm18.msky130_fd_pr__nfet_g5v0d10v5#dbody = 3.896658e-11
m.xm18.msky130_fd_pr__nfet_g5v0d10v5#sbody = 7.793404e-12
m.xm19.msky130_fd_pr__nfet_g5v0d10v5#body = 2.607715e-11
m.xm19.msky130_fd_pr__nfet_g5v0d10v5#dbody = 4.767138e-11
m.xm19.msky130_fd_pr__nfet_g5v0d10v5#sbody = 3.056007e-11
m.xm20.msky130_fd_pr__nfet_g5v0d10v5#body = 1.341301e-11
m.xm20.msky130_fd_pr__nfet_g5v0d10v5#dbody = 3.353246e-11
m.xm20.msky130_fd_pr__nfet_g5v0d10v5#sbody = 6.706578e-12
m.xm22.msky130_fd_pr__nfet_g5v0d10v5#body = 1.205559e-11
m.xm22.msky130_fd_pr__nfet_g5v0d10v5#dbody = 3.013888e-11
m.xm22.msky130_fd_pr__nfet_g5v0d10v5#sbody = 6.027900e-12
m.xm24.msky130_fd_pr__pfet_g5v0d10v5#body = 2.100000e+00
m.xm24.msky130_fd_pr__pfet_g5v0d10v5#dbody = 2.100000e+00
m.xm24.msky130_fd_pr__pfet_g5v0d10v5#sbody = 2.100000e+00
m.xm26.msky130_fd_pr__pfet_g5v0d10v5#body = 2.100000e+00
m.xm26.msky130_fd_pr__pfet_g5v0d10v5#dbody = 2.100000e+00
m.xm26.msky130_fd_pr__pfet_g5v0d10v5#sbody = 2.100000e+00
mir = 9.582802e-01
net1 = 6.283693e-01
net2 = 4.368842e-06
net3 = 7.016463e-01
net4 = 2.787776e-01
net5 = 9.631338e-01
net6 = 8.932378e-01
net7 = 7.015945e-01
net8 = 1.041284e+00
net9 = 1.053783e+00
net10 = 3.009551e-01
net11 = 1.088396e+00
net12 = 1.088396e+00
net13 = 0.000000e+00
out = 1.088396e+00
pos = 1.196966e+00
q.xq2.qsky130_fd_pr__pnp_05v5_w0p68l0p68#collcx = 2.838367e-03
q.xq3.qsky130_fd_pr__pnp_05v5_w0p68l0p68#collcx = 3.580864e-04
q.xq4.qsky130_fd_pr__pnp_05v5_w0p68l0p68#collcx = 3.580864e-04
q.xq8.qsky130_fd_pr__pnp_05v5_w0p68l0p68#collcx = 3.580864e-04
q.xq10.qsky130_fd_pr__pnp_05v5_w0p68l0p68#collcx = 3.580864e-04
q.xq12.qsky130_fd_pr__pnp_05v5_w0p68l0p68#collcx = 3.580864e-04
q.xq14.qsky130_fd_pr__pnp_05v5_w0p68l0p68#collcx = 3.580864e-04
q.xq16.qsky130_fd_pr__pnp_05v5_w0p68l0p68#collcx = 3.580864e-04
q.xq18.qsky130_fd_pr__pnp_05v5_w0p68l0p68#collcx = 3.580864e-04
vb = 9.145036e-01
vdd = 2.100000e+00
vs#branch = -1.01328e-02
vt#branch = 0.000000e+00
xc1.a = 0.000000e+00
xc1.b1 = 0.000000e+00
xc3.a = 1.088396e+00
xc3.b1 = 1.088396e+00
xr1.xsky130_fd_pr__res_xhigh_po_0p69.ra = 7.098238e-01
xr2.xsky130_fd_pr__res_xhigh_po_0p69.ra = 7.098755e-01
xr3.xsky130_fd_pr__res_xhigh_po_0p69.ra = 4.908269e-03
xr4.xsky130_fd_pr__res_xhigh_po_0p69.ra = 6.317365e-01
xr5.xsky130_fd_pr__res_xhigh_po_0p69.ra = 4.907885e-03
xr6.xsky130_fd_pr__res_xhigh_po_0p69.ra = 8.712938e-03
xr7.xsky130_fd_pr__res_xhigh_po_0p69.ra = 1.088396e+00
xr8.xsky130_fd_pr__res_xhigh_po_0p69.ra = 1.211456e+00
xr9.xsky130_fd_pr__res_xhigh_po_0p69.ra = 1.519697e-02
Doing analysis at TEMP = 85.000000 and TNOM = 27.000000


No. of Data Rows : 91
Note: Starting true gmin stepping
Trying gmin =   1.0000E-03 Note: One successful gmin step
Trying gmin =   1.0000E-04 Note: One successful gmin step
Trying gmin =   1.0000E-05 Note: One successful gmin step
Trying gmin =   1.0000E-06 Note: One successful gmin step
Trying gmin =   1.0000E-07 Note: One successful gmin step
Trying gmin =   1.0000E-08 Warning: Further gmin increment
Trying gmin =   5.6234E-08 Warning: Further gmin increment
Trying gmin =   8.6596E-08 Note: One successful gmin step
Trying gmin =   6.9783E-08 Note: One successful gmin step
Trying gmin =   5.0481E-08 Warning: Further gmin increment
Trying gmin =   6.4357E-08 Warning: Further gmin increment
Trying gmin =   6.8385E-08 Note: One successful gmin step
Trying gmin =   6.6340E-08 Warning: Further gmin increment
Trying gmin =   6.7868E-08 Note: One successful gmin step
Trying gmin =   6.7100E-08 Warning: Further gmin increment
Trying gmin =   6.7675E-08 Note: One successful gmin step
Trying gmin =   6.7387E-08 Note: One successful gmin step
Trying gmin =   6.6957E-08 Warning: Further gmin increment
Trying gmin =   6.7279E-08 Note: One successful gmin step
Trying gmin =   6.7118E-08 Warning: Further gmin increment
Trying gmin =   6.7239E-08 Warning: Further gmin increment
Trying gmin =   6.7269E-08 Note: One successful gmin step
Trying gmin =   6.7254E-08 Warning: Further gmin increment
Trying gmin =   6.7265E-08 Note: One successful gmin step
Trying gmin =   6.7259E-08 Warning: Further gmin increment
Trying gmin =   6.7264E-08 Note: One successful gmin step
Trying gmin =   6.7262E-08 Note: One successful gmin step
Trying gmin =   6.7258E-08 Warning: Last gmin step failed
Warning: True gmin stepping failed
Note: Starting dynamic gmin stepping
Trying gmin =   1.0000E-03 Note: One successful gmin step
Trying gmin =   1.0000E-04 Note: One successful gmin step
Trying gmin =   1.0000E-05 Note: One successful gmin step
Trying gmin =   1.0000E-06 Note: One successful gmin step
Trying gmin =   1.0000E-07 Note: One successful gmin step
Trying gmin =   1.0000E-08 Note: One successful gmin step
Trying gmin =   1.0000E-09 Note: One successful gmin step
Trying gmin =   1.0000E-10 Note: One successful gmin step
Trying gmin =   1.0000E-11 Note: One successful gmin step
Trying gmin =   1.0000E-12 Note: One successful gmin step
Trying gmin =   1.0000E-12 Note: One successful gmin step
Note: Dynamic gmin stepping completed
 Reference value :  2.80000e+00Note: Starting true gmin stepping
Trying gmin =   1.0000E-03 Note: One successful gmin step
Trying gmin =   1.0000E-04 Note: One successful gmin step
Trying gmin =   1.0000E-05 Note: One successful gmin step
Trying gmin =   1.0000E-06 Note: One successful gmin step
Trying gmin =   1.0000E-07 Note: One successful gmin step
Trying gmin =   1.0000E-08 Warning: Further gmin increment
Trying gmin =   5.6234E-08 Note: One successful gmin step
Trying gmin =   2.3714E-08 Note: One successful gmin step
Trying gmin =   6.4938E-09 Warning: Further gmin increment
Trying gmin =   1.7154E-08 Note: One successful gmin step
Trying gmin =   1.0554E-08 Note: One successful gmin step
Trying gmin =   5.0937E-09 Note: One successful gmin step
Trying gmin =   1.7077E-09 Note: One successful gmin step
Trying gmin =   3.3152E-10 Note: One successful gmin step
Trying gmin =   3.3152E-11 Note: One successful gmin step
Trying gmin =   3.3152E-12 Note: One successful gmin step
Trying gmin =   1.0000E-12 Note: One successful gmin step
Note: True gmin stepping completed
Note: Starting true gmin stepping
Trying gmin =   1.0000E-03 Note: One successful gmin step
Trying gmin =   1.0000E-04 Note: One successful gmin step
Trying gmin =   1.0000E-05 Note: One successful gmin step
Trying gmin =   1.0000E-06 Note: One successful gmin step
Trying gmin =   1.0000E-07 Note: One successful gmin step
Trying gmin =   1.0000E-08 Warning: Further gmin increment
Trying gmin =   5.6234E-08 Note: One successful gmin step
Trying gmin =   2.3714E-08 Note: One successful gmin step
Trying gmin =   6.4938E-09 Warning: Further gmin increment
Trying gmin =   1.7154E-08 Note: One successful gmin step
Trying gmin =   1.0554E-08 Warning: Further gmin increment
Trying gmin =   1.5193E-08 Note: One successful gmin step
Trying gmin =   1.2663E-08 Note: One successful gmin step
Trying gmin =   9.6358E-09 Note: One successful gmin step
Trying gmin =   6.3960E-09 Note: One successful gmin step
Trying gmin =   3.4589E-09 Note: One successful gmin step
Trying gmin =   1.3756E-09 Note: One successful gmin step
Trying gmin =   3.4499E-10 Note: One successful gmin step
Trying gmin =   4.3331E-11 Note: One successful gmin step
Trying gmin =   4.3331E-12 Note: One successful gmin step
Trying gmin =   1.0000E-12 Note: One successful gmin step
Note: True gmin stepping completed
 Reference value :  1.20000e+00pm                  =  -5.839784e+01
Doing analysis at TEMP = 85.000000 and TNOM = 27.000000


No. of Data Rows : 91
psrr100             =  -4.719398e+01
psrr100k            =  -2.403201e+01
Doing analysis at TEMP = 85.000000 and TNOM = 27.000000


No. of Data Rows : 86
temp_coeff = 8.866998e+01
Doing analysis at TEMP = 85.000000 and TNOM = 27.000000


No. of Data Rows : 141
vldo_sup_2          =  1.799702e+00
vldo_sup_2_8        =  1.801894e+00
line_reg = 2.740000e-03
Note: No ".plot", ".print", or ".fourier" lines; no simulations run
vin                 =  1.783005e+00
dropout = 1.900500e-02
