 Reference value :  0.00000e+00
No compatibility mode selected!


Circuit: * ldo netlist 

Doing analysis at TEMP = 27.000000 and TNOM = 27.000000


No. of Data Rows : 1
bg_out = 1.099015e+00
inn = 1.144252e+00
inp = 1.144191e+00
l1#branch = 0.000000e+00
ldo_out = 1.806650e+00
m.xm1.msky130_fd_pr__nfet_g5v0d10v5#body = 1.312663e-11
m.xm1.msky130_fd_pr__nfet_g5v0d10v5#dbody = 2.592120e-11
m.xm1.msky130_fd_pr__nfet_g5v0d10v5#sbody = 1.345868e-11
m.xm2.msky130_fd_pr__pfet_g5v0d10v5#body = 2.100000e+00
m.xm2.msky130_fd_pr__pfet_g5v0d10v5#dbody = 2.100000e+00
m.xm2.msky130_fd_pr__pfet_g5v0d10v5#sbody = 2.100000e+00
m.xm3.msky130_fd_pr__pfet_g5v0d10v5#body = 2.100000e+00
m.xm3.msky130_fd_pr__pfet_g5v0d10v5#dbody = 2.100000e+00
m.xm3.msky130_fd_pr__pfet_g5v0d10v5#sbody = 2.100000e+00
m.xm4.msky130_fd_pr__pfet_g5v0d10v5#body = 2.100000e+00
m.xm4.msky130_fd_pr__pfet_g5v0d10v5#dbody = 2.100000e+00
m.xm4.msky130_fd_pr__pfet_g5v0d10v5#sbody = 2.100000e+00
m.xm5.msky130_fd_pr__pfet_g5v0d10v5#body = 2.100000e+00
m.xm5.msky130_fd_pr__pfet_g5v0d10v5#dbody = 2.100000e+00
m.xm5.msky130_fd_pr__pfet_g5v0d10v5#sbody = 2.100000e+00
m.xm6.msky130_fd_pr__nfet_g5v0d10v5#body = 1.119913e-11
m.xm6.msky130_fd_pr__nfet_g5v0d10v5#dbody = 2.799781e-11
m.xm6.msky130_fd_pr__nfet_g5v0d10v5#sbody = 5.599568e-12
m.xm7.msky130_fd_pr__pfet_g5v0d10v5#body = 2.100000e+00
m.xm7.msky130_fd_pr__pfet_g5v0d10v5#dbody = 2.100000e+00
m.xm7.msky130_fd_pr__pfet_g5v0d10v5#sbody = 2.100000e+00
m.xm8.msky130_fd_pr__pfet_g5v0d10v5#body = 2.100000e+00
m.xm8.msky130_fd_pr__pfet_g5v0d10v5#dbody = 2.100000e+00
m.xm8.msky130_fd_pr__pfet_g5v0d10v5#sbody = 2.100000e+00
m.xm9.msky130_fd_pr__nfet_g5v0d10v5#body = 1.378822e-11
m.xm9.msky130_fd_pr__nfet_g5v0d10v5#dbody = 2.868901e-11
m.xm9.msky130_fd_pr__nfet_g5v0d10v5#sbody = 1.267564e-11
m.xm10.msky130_fd_pr__nfet_g5v0d10v5#body = 1.378284e-11
m.xm10.msky130_fd_pr__nfet_g5v0d10v5#dbody = 2.867557e-11
m.xm10.msky130_fd_pr__nfet_g5v0d10v5#sbody = 1.267295e-11
m.xm11.msky130_fd_pr__pfet_g5v0d10v5#body = 2.100000e+00
m.xm11.msky130_fd_pr__pfet_g5v0d10v5#dbody = 2.100000e+00
m.xm11.msky130_fd_pr__pfet_g5v0d10v5#sbody = 2.100000e+00
m.xm12.msky130_fd_pr__pfet_g5v0d10v5#body = 2.100000e+00
m.xm12.msky130_fd_pr__pfet_g5v0d10v5#dbody = 2.100000e+00
m.xm12.msky130_fd_pr__pfet_g5v0d10v5#sbody = 2.100000e+00
m.xm13.msky130_fd_pr__nfet_g5v0d10v5#body = 2.889407e-12
m.xm13.msky130_fd_pr__nfet_g5v0d10v5#dbody = 7.223505e-12
m.xm13.msky130_fd_pr__nfet_g5v0d10v5#sbody = 1.444715e-12
m.xm14.msky130_fd_pr__pfet_g5v0d10v5#body = 2.100000e+00
m.xm14.msky130_fd_pr__pfet_g5v0d10v5#dbody = 2.100000e+00
m.xm14.msky130_fd_pr__pfet_g5v0d10v5#sbody = 2.100000e+00
m.xm15.msky130_fd_pr__nfet_g5v0d10v5#body = 1.314646e-17
m.xm15.msky130_fd_pr__nfet_g5v0d10v5#dbody = 3.286513e-17
m.xm15.msky130_fd_pr__nfet_g5v0d10v5#sbody = 6.574251e-18
m.xm16.msky130_fd_pr__nfet_g5v0d10v5#body = 4.056178e-11
m.xm16.msky130_fd_pr__nfet_g5v0d10v5#dbody = 7.278952e-11
m.xm16.msky130_fd_pr__nfet_g5v0d10v5#sbody = 4.889581e-11
m.xm17.msky130_fd_pr__pfet_g5v0d10v5#body = 2.100000e+00
m.xm17.msky130_fd_pr__pfet_g5v0d10v5#dbody = 2.100000e+00
m.xm17.msky130_fd_pr__pfet_g5v0d10v5#sbody = 2.100000e+00
m.xm18.msky130_fd_pr__nfet_g5v0d10v5#body = 3.748890e-12
m.xm18.msky130_fd_pr__nfet_g5v0d10v5#dbody = 9.372213e-12
m.xm18.msky130_fd_pr__nfet_g5v0d10v5#sbody = 1.874457e-12
m.xm19.msky130_fd_pr__nfet_g5v0d10v5#body = 1.319401e-11
m.xm19.msky130_fd_pr__nfet_g5v0d10v5#dbody = 2.608965e-11
m.xm19.msky130_fd_pr__nfet_g5v0d10v5#sbody = 1.349237e-11
m.xm20.msky130_fd_pr__nfet_g5v0d10v5#body = 1.111400e-11
m.xm20.msky130_fd_pr__nfet_g5v0d10v5#dbody = 2.778497e-11
m.xm20.msky130_fd_pr__nfet_g5v0d10v5#sbody = 5.557011e-12
m.xm22.msky130_fd_pr__nfet_g5v0d10v5#body = 3.450396e-12
m.xm22.msky130_fd_pr__nfet_g5v0d10v5#dbody = 8.625985e-12
m.xm22.msky130_fd_pr__nfet_g5v0d10v5#sbody = 1.725203e-12
m.xm24.msky130_fd_pr__pfet_g5v0d10v5#body = 2.100000e+00
m.xm24.msky130_fd_pr__pfet_g5v0d10v5#dbody = 2.100000e+00
m.xm24.msky130_fd_pr__pfet_g5v0d10v5#sbody = 2.100000e+00
m.xm26.msky130_fd_pr__pfet_g5v0d10v5#body = 2.100000e+00
m.xm26.msky130_fd_pr__pfet_g5v0d10v5#dbody = 2.100000e+00
m.xm26.msky130_fd_pr__pfet_g5v0d10v5#sbody = 2.100000e+00
mir = 7.739704e-01
net1 = 7.274402e-01
net2 = 1.011597e-06
net3 = 7.873001e-01
net4 = 2.754694e-01
net5 = 7.793607e-01
net6 = 8.953677e-01
net7 = 7.872382e-01
net8 = 8.711294e-01
net9 = 8.715595e-01
net10 = 2.310244e-01
net11 = 2.997831e-01
net12 = 2.997831e-01
net13 = 0.000000e+00
out = 2.997831e-01
pos = 1.099020e+00
q.xq2.qsky130_fd_pr__pnp_05v5_w0p68l0p68#collcx = 2.275998e-03
q.xq3.qsky130_fd_pr__pnp_05v5_w0p68l0p68#collcx = 2.868551e-04
q.xq4.qsky130_fd_pr__pnp_05v5_w0p68l0p68#collcx = 2.868551e-04
q.xq8.qsky130_fd_pr__pnp_05v5_w0p68l0p68#collcx = 2.868551e-04
q.xq10.qsky130_fd_pr__pnp_05v5_w0p68l0p68#collcx = 2.868551e-04
q.xq12.qsky130_fd_pr__pnp_05v5_w0p68l0p68#collcx = 2.868551e-04
q.xq14.qsky130_fd_pr__pnp_05v5_w0p68l0p68#collcx = 2.868551e-04
q.xq16.qsky130_fd_pr__pnp_05v5_w0p68l0p68#collcx = 2.868551e-04
q.xq18.qsky130_fd_pr__pnp_05v5_w0p68l0p68#collcx = 2.868551e-04
vb = 8.889914e-01
vdd = 2.100000e+00
vs#branch = -1.00500e-01
vt#branch = 0.000000e+00
xc1.a = 0.000000e+00
xc1.b1 = 0.000000e+00
xc3.a = 2.997831e-01
xc3.b1 = 2.997831e-01
xr1.xsky130_fd_pr__res_xhigh_po_0p69.ra = 7.902202e-01
xr2.xsky130_fd_pr__res_xhigh_po_0p69.ra = 7.902820e-01
xr3.xsky130_fd_pr__res_xhigh_po_0p69.ra = 2.064371e-03
xr4.xsky130_fd_pr__res_xhigh_po_0p69.ra = 7.284144e-01
xr5.xsky130_fd_pr__res_xhigh_po_0p69.ra = 2.064198e-03
xr6.xsky130_fd_pr__res_xhigh_po_0p69.ra = 3.165909e-03
xr7.xsky130_fd_pr__res_xhigh_po_0p69.ra = 2.997831e-01
xr8.xsky130_fd_pr__res_xhigh_po_0p69.ra = 1.103827e+00
xr9.xsky130_fd_pr__res_xhigh_po_0p69.ra = 4.962797e-03
Doing analysis at TEMP = 27.000000 and TNOM = 27.000000


No. of Data Rows : 91
Error: no such vector PM
Note: Starting true gmin stepping
Trying gmin =   1.0000E-03 Note: One successful gmin step
Trying gmin =   1.0000E-04 Note: One successful gmin step
Trying gmin =   1.0000E-05 Note: One successful gmin step
Trying gmin =   1.0000E-06 Note: One successful gmin step
Trying gmin =   1.0000E-07 Note: One successful gmin step
Trying gmin =   1.0000E-08 Warning: Further gmin increment
Trying gmin =   5.6234E-08 Note: One successful gmin step
Trying gmin =   2.3714E-08 Note: One successful gmin step
Trying gmin =   6.4938E-09 Note: One successful gmin step
Trying gmin =   3.3982E-09 Note: One successful gmin step
Trying gmin =   1.2864E-09 Note: One successful gmin step
Trying gmin =   2.9961E-10 Note: One successful gmin step
Trying gmin =   3.3678E-11 Note: One successful gmin step
Trying gmin =   3.3678E-12 Note: One successful gmin step
Trying gmin =   1.0000E-12 Note: One successful gmin step
Note: True gmin stepping completed
 Reference value :  1.38000e+00Note: Starting true gmin stepping
Trying gmin =   1.0000E-03 Note: One successful gmin step
Trying gmin =   1.0000E-04 Note: One successful gmin step
Trying gmin =   1.0000E-05 Note: One successful gmin step
Trying gmin =   1.0000E-06 Note: One successful gmin step
Trying gmin =   1.0000E-07 Note: One successful gmin step
Trying gmin =   1.0000E-08 Note: One successful gmin step
Trying gmin =   3.1623E-09 Note: One successful gmin step
Trying gmin =   5.6234E-10 Note: One successful gmin step
Trying gmin =   5.6234E-11 Note: One successful gmin step
Trying gmin =   5.6234E-12 Note: One successful gmin step
Trying gmin =   1.0000E-12 Note: One successful gmin step
Note: True gmin stepping completed

Error: measure  pm  (AT) : out of interval
 meas ac pm find p when vdb(ldo_out)=0 failed!

Doing analysis at TEMP = 27.000000 and TNOM = 27.000000


No. of Data Rows : 91
psrr100             =  -5.154209e+01
psrr100k            =  -1.911263e+01
Doing analysis at TEMP = 27.000000 and TNOM = 27.000000


No. of Data Rows : 86
temp_coeff = 6.063772e+01
Doing analysis at TEMP = 27.000000 and TNOM = 27.000000


No. of Data Rows : 141
vldo_sup_2          =  1.790624e+00
vldo_sup_2_8        =  1.806800e+00
line_reg = 2.022000e-02
Note: No ".plot", ".print", or ".fourier" lines; no simulations run
vin                 =  1.976014e+00
dropout = 2.120140e-01
