 Reference value :  0.00000e+00
No compatibility mode selected!


Circuit: * ldo netlist 

Doing analysis at TEMP = 85.000000 and TNOM = 27.000000


No. of Data Rows : 1
bg_out = 1.105543e+00
inn = 1.072197e+00
inp = 1.072088e+00
l1#branch = 0.000000e+00
ldo_out = 1.817835e+00
m.xm1.msky130_fd_pr__nfet_g5v0d10v5#body = 2.880565e-11
m.xm1.msky130_fd_pr__nfet_g5v0d10v5#dbody = 5.669739e-11
m.xm1.msky130_fd_pr__nfet_g5v0d10v5#sbody = 2.971956e-11
m.xm2.msky130_fd_pr__pfet_g5v0d10v5#body = 2.500000e+00
m.xm2.msky130_fd_pr__pfet_g5v0d10v5#dbody = 2.500000e+00
m.xm2.msky130_fd_pr__pfet_g5v0d10v5#sbody = 2.500000e+00
m.xm3.msky130_fd_pr__pfet_g5v0d10v5#body = 2.500000e+00
m.xm3.msky130_fd_pr__pfet_g5v0d10v5#dbody = 2.500000e+00
m.xm3.msky130_fd_pr__pfet_g5v0d10v5#sbody = 2.500000e+00
m.xm4.msky130_fd_pr__pfet_g5v0d10v5#body = 2.500000e+00
m.xm4.msky130_fd_pr__pfet_g5v0d10v5#dbody = 2.500000e+00
m.xm4.msky130_fd_pr__pfet_g5v0d10v5#sbody = 2.500000e+00
m.xm5.msky130_fd_pr__pfet_g5v0d10v5#body = 2.500000e+00
m.xm5.msky130_fd_pr__pfet_g5v0d10v5#dbody = 2.500000e+00
m.xm5.msky130_fd_pr__pfet_g5v0d10v5#sbody = 2.500000e+00
m.xm6.msky130_fd_pr__nfet_g5v0d10v5#body = 2.041070e-11
m.xm6.msky130_fd_pr__nfet_g5v0d10v5#dbody = 5.102662e-11
m.xm6.msky130_fd_pr__nfet_g5v0d10v5#sbody = 1.020547e-11
m.xm7.msky130_fd_pr__pfet_g5v0d10v5#body = 2.500000e+00
m.xm7.msky130_fd_pr__pfet_g5v0d10v5#dbody = 2.500000e+00
m.xm7.msky130_fd_pr__pfet_g5v0d10v5#sbody = 2.500000e+00
m.xm8.msky130_fd_pr__pfet_g5v0d10v5#body = 2.500000e+00
m.xm8.msky130_fd_pr__pfet_g5v0d10v5#dbody = 2.500000e+00
m.xm8.msky130_fd_pr__pfet_g5v0d10v5#sbody = 2.500000e+00
m.xm9.msky130_fd_pr__nfet_g5v0d10v5#body = 2.702406e-11
m.xm9.msky130_fd_pr__nfet_g5v0d10v5#dbody = 5.537575e-11
m.xm9.msky130_fd_pr__nfet_g5v0d10v5#sbody = 2.569641e-11
m.xm10.msky130_fd_pr__nfet_g5v0d10v5#body = 2.677956e-11
m.xm10.msky130_fd_pr__nfet_g5v0d10v5#dbody = 5.476450e-11
m.xm10.msky130_fd_pr__nfet_g5v0d10v5#sbody = 2.557416e-11
m.xm11.msky130_fd_pr__pfet_g5v0d10v5#body = 2.500000e+00
m.xm11.msky130_fd_pr__pfet_g5v0d10v5#dbody = 2.500000e+00
m.xm11.msky130_fd_pr__pfet_g5v0d10v5#sbody = 2.500000e+00
m.xm12.msky130_fd_pr__pfet_g5v0d10v5#body = 2.500000e+00
m.xm12.msky130_fd_pr__pfet_g5v0d10v5#dbody = 2.500000e+00
m.xm12.msky130_fd_pr__pfet_g5v0d10v5#sbody = 2.500000e+00
m.xm13.msky130_fd_pr__nfet_g5v0d10v5#body = 4.449003e-12
m.xm13.msky130_fd_pr__nfet_g5v0d10v5#dbody = 1.112244e-11
m.xm13.msky130_fd_pr__nfet_g5v0d10v5#sbody = 2.224568e-12
m.xm14.msky130_fd_pr__pfet_g5v0d10v5#body = 2.500000e+00
m.xm14.msky130_fd_pr__pfet_g5v0d10v5#dbody = 2.500000e+00
m.xm14.msky130_fd_pr__pfet_g5v0d10v5#sbody = 2.500000e+00
m.xm15.msky130_fd_pr__nfet_g5v0d10v5#body = 5.881922e-14
m.xm15.msky130_fd_pr__nfet_g5v0d10v5#dbody = 1.470461e-13
m.xm15.msky130_fd_pr__nfet_g5v0d10v5#sbody = 2.941157e-14
m.xm16.msky130_fd_pr__nfet_g5v0d10v5#body = 5.525878e-11
m.xm16.msky130_fd_pr__nfet_g5v0d10v5#dbody = 1.007357e-10
m.xm16.msky130_fd_pr__nfet_g5v0d10v5#sbody = 6.504063e-11
m.xm17.msky130_fd_pr__pfet_g5v0d10v5#body = 2.500000e+00
m.xm17.msky130_fd_pr__pfet_g5v0d10v5#dbody = 2.500000e+00
m.xm17.msky130_fd_pr__pfet_g5v0d10v5#sbody = 2.500000e+00
m.xm18.msky130_fd_pr__nfet_g5v0d10v5#body = 1.381021e-11
m.xm18.msky130_fd_pr__nfet_g5v0d10v5#dbody = 3.452545e-11
m.xm18.msky130_fd_pr__nfet_g5v0d10v5#sbody = 6.905188e-12
m.xm19.msky130_fd_pr__nfet_g5v0d10v5#body = 2.897852e-11
m.xm19.msky130_fd_pr__nfet_g5v0d10v5#dbody = 5.712955e-11
m.xm19.msky130_fd_pr__nfet_g5v0d10v5#sbody = 2.980599e-11
m.xm20.msky130_fd_pr__nfet_g5v0d10v5#body = 1.441920e-11
m.xm20.msky130_fd_pr__nfet_g5v0d10v5#dbody = 3.604791e-11
m.xm20.msky130_fd_pr__nfet_g5v0d10v5#sbody = 7.209681e-12
m.xm22.msky130_fd_pr__nfet_g5v0d10v5#body = 1.094306e-11
m.xm22.msky130_fd_pr__nfet_g5v0d10v5#dbody = 2.735755e-11
m.xm22.msky130_fd_pr__nfet_g5v0d10v5#sbody = 5.471641e-12
m.xm24.msky130_fd_pr__pfet_g5v0d10v5#body = 2.500000e+00
m.xm24.msky130_fd_pr__pfet_g5v0d10v5#dbody = 2.500000e+00
m.xm24.msky130_fd_pr__pfet_g5v0d10v5#sbody = 2.500000e+00
m.xm26.msky130_fd_pr__pfet_g5v0d10v5#body = 2.500000e+00
m.xm26.msky130_fd_pr__pfet_g5v0d10v5#dbody = 2.500000e+00
m.xm26.msky130_fd_pr__pfet_g5v0d10v5#sbody = 2.500000e+00
mir = 1.267530e+00
net1 = 6.383851e-01
net2 = 1.135360e-04
net3 = 7.117406e-01
net4 = 1.898198e-01
net5 = 1.281359e+00
net6 = 9.449544e-01
net7 = 7.116304e-01
net8 = 1.362558e+00
net9 = 1.382118e+00
net10 = 1.957533e-01
net11 = 9.442050e-01
net12 = 9.442050e-01
net13 = 0.000000e+00
out = 9.442050e-01
pos = 1.105742e+00
q.xq2.qsky130_fd_pr__pnp_05v5_w0p68l0p68#collcx = 2.932192e-03
q.xq3.qsky130_fd_pr__pnp_05v5_w0p68l0p68#collcx = 3.733202e-04
q.xq4.qsky130_fd_pr__pnp_05v5_w0p68l0p68#collcx = 3.733202e-04
q.xq8.qsky130_fd_pr__pnp_05v5_w0p68l0p68#collcx = 3.733202e-04
q.xq10.qsky130_fd_pr__pnp_05v5_w0p68l0p68#collcx = 3.733202e-04
q.xq12.qsky130_fd_pr__pnp_05v5_w0p68l0p68#collcx = 3.733202e-04
q.xq14.qsky130_fd_pr__pnp_05v5_w0p68l0p68#collcx = 3.733202e-04
q.xq16.qsky130_fd_pr__pnp_05v5_w0p68l0p68#collcx = 3.733202e-04
q.xq18.qsky130_fd_pr__pnp_05v5_w0p68l0p68#collcx = 3.733202e-04
vb = 9.929239e-01
vdd = 2.500000e+00
vs#branch = -1.01134e-01
vt#branch = 0.000000e+00
xc1.a = 0.000000e+00
xc1.b1 = 0.000000e+00
xc3.a = 9.442050e-01
xc3.b1 = 9.442050e-01
xr1.xsky130_fd_pr__res_xhigh_po_0p69.ra = 7.148884e-01
xr2.xsky130_fd_pr__res_xhigh_po_0p69.ra = 7.149985e-01
xr3.xsky130_fd_pr__res_xhigh_po_0p69.ra = 2.007014e-03
xr4.xsky130_fd_pr__res_xhigh_po_0p69.ra = 6.396751e-01
xr5.xsky130_fd_pr__res_xhigh_po_0p69.ra = 2.006685e-03
xr6.xsky130_fd_pr__res_xhigh_po_0p69.ra = 3.448255e-03
xr7.xsky130_fd_pr__res_xhigh_po_0p69.ra = 9.442050e-01
xr8.xsky130_fd_pr__res_xhigh_po_0p69.ra = 1.110977e+00
xr9.xsky130_fd_pr__res_xhigh_po_0p69.ra = 5.405688e-03
Doing analysis at TEMP = 85.000000 and TNOM = 27.000000


No. of Data Rows : 91
Error: no such vector PM
Note: Starting true gmin stepping
Trying gmin =   1.0000E-03 Note: One successful gmin step
Trying gmin =   1.0000E-04 Note: One successful gmin step
Trying gmin =   1.0000E-05 Note: One successful gmin step
Trying gmin =   1.0000E-06 Note: One successful gmin step
Trying gmin =   1.0000E-07 Note: One successful gmin step
Trying gmin =   1.0000E-08 Note: One successful gmin step
Trying gmin =   1.0000E-09 Warning: Further gmin increment
Trying gmin =   5.6234E-09 Note: One successful gmin step
Trying gmin =   2.3714E-09 Note: One successful gmin step
Trying gmin =   1.0000E-09 Note: One successful gmin step
Trying gmin =   6.4938E-10 Note: One successful gmin step
Trying gmin =   3.3982E-10 Note: One successful gmin step
Trying gmin =   1.2864E-10 Note: One successful gmin step
Trying gmin =   2.9961E-11 Note: One successful gmin step
Trying gmin =   3.3678E-12 Note: One successful gmin step
Trying gmin =   1.0000E-12 Note: One successful gmin step
Note: True gmin stepping completed
 Reference value :  1.20000e+00
Error: measure  pm  (AT) : out of interval
 meas ac pm find p when vdb(ldo_out)=0 failed!

Doing analysis at TEMP = 85.000000 and TNOM = 27.000000


No. of Data Rows : 91
psrr100             =  -5.275913e+01
psrr100k            =  -2.539119e+01
Doing analysis at TEMP = 85.000000 and TNOM = 27.000000


No. of Data Rows : 86
temp_coeff = 7.979155e+01
Doing analysis at TEMP = 85.000000 and TNOM = 27.000000


No. of Data Rows : 141
vldo_sup_2          =  1.779839e+00
vldo_sup_2_8        =  1.818191e+00
line_reg = 4.794000e-02
Note: No ".plot", ".print", or ".fourier" lines; no simulations run
vin                 =  1.985229e+00
dropout = 2.212290e-01
