 Reference value :  0.00000e+00
No compatibility mode selected!


Circuit: * ldo netlist 

Doing analysis at TEMP = 85.000000 and TNOM = 27.000000


No. of Data Rows : 1
bg_out = 1.203220e+00
inn = 1.149946e+00
inp = 1.149895e+00
l1#branch = 0.000000e+00
ldo_out = 1.810803e+00
m.xm1.msky130_fd_pr__nfet_g5v0d10v5#body = 2.515079e-11
m.xm1.msky130_fd_pr__nfet_g5v0d10v5#dbody = 4.414712e-11
m.xm1.msky130_fd_pr__nfet_g5v0d10v5#sbody = 3.130524e-11
m.xm2.msky130_fd_pr__pfet_g5v0d10v5#body = 2.100000e+00
m.xm2.msky130_fd_pr__pfet_g5v0d10v5#dbody = 2.100000e+00
m.xm2.msky130_fd_pr__pfet_g5v0d10v5#sbody = 2.100000e+00
m.xm3.msky130_fd_pr__pfet_g5v0d10v5#body = 2.100000e+00
m.xm3.msky130_fd_pr__pfet_g5v0d10v5#dbody = 2.100000e+00
m.xm3.msky130_fd_pr__pfet_g5v0d10v5#sbody = 2.100000e+00
m.xm4.msky130_fd_pr__pfet_g5v0d10v5#body = 2.100000e+00
m.xm4.msky130_fd_pr__pfet_g5v0d10v5#dbody = 2.100000e+00
m.xm4.msky130_fd_pr__pfet_g5v0d10v5#sbody = 2.100000e+00
m.xm5.msky130_fd_pr__pfet_g5v0d10v5#body = 2.100000e+00
m.xm5.msky130_fd_pr__pfet_g5v0d10v5#dbody = 2.100000e+00
m.xm5.msky130_fd_pr__pfet_g5v0d10v5#sbody = 2.100000e+00
m.xm6.msky130_fd_pr__nfet_g5v0d10v5#body = 1.916383e-11
m.xm6.msky130_fd_pr__nfet_g5v0d10v5#dbody = 4.790946e-11
m.xm6.msky130_fd_pr__nfet_g5v0d10v5#sbody = 9.582034e-12
m.xm7.msky130_fd_pr__pfet_g5v0d10v5#body = 2.100000e+00
m.xm7.msky130_fd_pr__pfet_g5v0d10v5#dbody = 2.100000e+00
m.xm7.msky130_fd_pr__pfet_g5v0d10v5#sbody = 2.100000e+00
m.xm8.msky130_fd_pr__pfet_g5v0d10v5#body = 2.100000e+00
m.xm8.msky130_fd_pr__pfet_g5v0d10v5#dbody = 2.100000e+00
m.xm8.msky130_fd_pr__pfet_g5v0d10v5#sbody = 2.100000e+00
m.xm9.msky130_fd_pr__nfet_g5v0d10v5#body = 2.344203e-11
m.xm9.msky130_fd_pr__nfet_g5v0d10v5#dbody = 4.254975e-11
m.xm9.msky130_fd_pr__nfet_g5v0d10v5#sbody = 2.777635e-11
m.xm10.msky130_fd_pr__nfet_g5v0d10v5#body = 2.330549e-11
m.xm10.msky130_fd_pr__nfet_g5v0d10v5#dbody = 4.220839e-11
m.xm10.msky130_fd_pr__nfet_g5v0d10v5#sbody = 2.770808e-11
m.xm11.msky130_fd_pr__pfet_g5v0d10v5#body = 2.100000e+00
m.xm11.msky130_fd_pr__pfet_g5v0d10v5#dbody = 2.100000e+00
m.xm11.msky130_fd_pr__pfet_g5v0d10v5#sbody = 2.100000e+00
m.xm12.msky130_fd_pr__pfet_g5v0d10v5#body = 2.100000e+00
m.xm12.msky130_fd_pr__pfet_g5v0d10v5#dbody = 2.100000e+00
m.xm12.msky130_fd_pr__pfet_g5v0d10v5#sbody = 2.100000e+00
m.xm13.msky130_fd_pr__nfet_g5v0d10v5#body = 6.379959e-12
m.xm13.msky130_fd_pr__nfet_g5v0d10v5#dbody = 1.594982e-11
m.xm13.msky130_fd_pr__nfet_g5v0d10v5#sbody = 3.190051e-12
m.xm14.msky130_fd_pr__pfet_g5v0d10v5#body = 2.100000e+00
m.xm14.msky130_fd_pr__pfet_g5v0d10v5#dbody = 2.100000e+00
m.xm14.msky130_fd_pr__pfet_g5v0d10v5#sbody = 2.100000e+00
m.xm15.msky130_fd_pr__nfet_g5v0d10v5#body = 4.408695e-16
m.xm15.msky130_fd_pr__nfet_g5v0d10v5#dbody = 1.102136e-15
m.xm15.msky130_fd_pr__nfet_g5v0d10v5#sbody = 2.204724e-16
m.xm16.msky130_fd_pr__nfet_g5v0d10v5#body = 5.110469e-11
m.xm16.msky130_fd_pr__nfet_g5v0d10v5#dbody = 8.853272e-11
m.xm16.msky130_fd_pr__nfet_g5v0d10v5#sbody = 6.478136e-11
m.xm17.msky130_fd_pr__pfet_g5v0d10v5#body = 2.100000e+00
m.xm17.msky130_fd_pr__pfet_g5v0d10v5#dbody = 2.100000e+00
m.xm17.msky130_fd_pr__pfet_g5v0d10v5#sbody = 2.100000e+00
m.xm18.msky130_fd_pr__nfet_g5v0d10v5#body = 1.413533e-11
m.xm18.msky130_fd_pr__nfet_g5v0d10v5#dbody = 3.533824e-11
m.xm18.msky130_fd_pr__nfet_g5v0d10v5#sbody = 7.067742e-12
m.xm19.msky130_fd_pr__nfet_g5v0d10v5#body = 2.520125e-11
m.xm19.msky130_fd_pr__nfet_g5v0d10v5#dbody = 4.427329e-11
m.xm19.msky130_fd_pr__nfet_g5v0d10v5#sbody = 3.133048e-11
m.xm20.msky130_fd_pr__nfet_g5v0d10v5#body = 1.243727e-11
m.xm20.msky130_fd_pr__nfet_g5v0d10v5#dbody = 3.109309e-11
m.xm20.msky130_fd_pr__nfet_g5v0d10v5#sbody = 6.218712e-12
m.xm22.msky130_fd_pr__nfet_g5v0d10v5#body = 1.266036e-11
m.xm22.msky130_fd_pr__nfet_g5v0d10v5#dbody = 3.165080e-11
m.xm22.msky130_fd_pr__nfet_g5v0d10v5#sbody = 6.330297e-12
m.xm24.msky130_fd_pr__pfet_g5v0d10v5#body = 2.100000e+00
m.xm24.msky130_fd_pr__pfet_g5v0d10v5#dbody = 2.100000e+00
m.xm24.msky130_fd_pr__pfet_g5v0d10v5#sbody = 2.100000e+00
m.xm26.msky130_fd_pr__pfet_g5v0d10v5#body = 2.100000e+00
m.xm26.msky130_fd_pr__pfet_g5v0d10v5#dbody = 2.100000e+00
m.xm26.msky130_fd_pr__pfet_g5v0d10v5#sbody = 2.100000e+00
mir = 8.436542e-01
net1 = 6.313326e-01
net2 = 8.527009e-07
net3 = 7.051862e-01
net4 = 3.299995e-01
net5 = 8.476916e-01
net6 = 8.502433e-01
net7 = 7.051343e-01
net8 = 9.348329e-01
net9 = 9.457563e-01
net10 = 3.548268e-01
net11 = 9.752523e-01
net12 = 9.752523e-01
net13 = 0.000000e+00
out = 9.752523e-01
pos = 1.203380e+00
q.xq2.qsky130_fd_pr__pnp_05v5_w0p68l0p68#collcx = 3.101568e-03
q.xq3.qsky130_fd_pr__pnp_05v5_w0p68l0p68#collcx = 3.916447e-04
q.xq4.qsky130_fd_pr__pnp_05v5_w0p68l0p68#collcx = 3.916447e-04
q.xq8.qsky130_fd_pr__pnp_05v5_w0p68l0p68#collcx = 3.916447e-04
q.xq10.qsky130_fd_pr__pnp_05v5_w0p68l0p68#collcx = 3.916447e-04
q.xq12.qsky130_fd_pr__pnp_05v5_w0p68l0p68#collcx = 3.916447e-04
q.xq14.qsky130_fd_pr__pnp_05v5_w0p68l0p68#collcx = 3.916447e-04
q.xq16.qsky130_fd_pr__pnp_05v5_w0p68l0p68#collcx = 3.916447e-04
q.xq18.qsky130_fd_pr__pnp_05v5_w0p68l0p68#collcx = 3.916447e-04
vb = 8.394077e-01
vdd = 2.100000e+00
vs#branch = -1.02045e-02
vt#branch = 0.000000e+00
xc1.a = 0.000000e+00
xc1.b1 = 0.000000e+00
xc3.a = 9.752523e-01
xc3.b1 = 9.752523e-01
xr1.xsky130_fd_pr__res_xhigh_po_0p69.ra = 7.083098e-01
xr2.xsky130_fd_pr__res_xhigh_po_0p69.ra = 7.083616e-01
xr3.xsky130_fd_pr__res_xhigh_po_0p69.ra = 1.893344e-03
xr4.xsky130_fd_pr__res_xhigh_po_0p69.ra = 6.326323e-01
xr5.xsky130_fd_pr__res_xhigh_po_0p69.ra = 1.893197e-03
xr6.xsky130_fd_pr__res_xhigh_po_0p69.ra = 3.363251e-03
xr7.xsky130_fd_pr__res_xhigh_po_0p69.ra = 9.752523e-01
xr8.xsky130_fd_pr__res_xhigh_po_0p69.ra = 1.208968e+00
xr9.xsky130_fd_pr__res_xhigh_po_0p69.ra = 5.861648e-03
Doing analysis at TEMP = 85.000000 and TNOM = 27.000000


No. of Data Rows : 91
 Reference value :  1.54000e+00Note: Starting true gmin stepping
Trying gmin =   1.0000E-03 Note: One successful gmin step
Trying gmin =   1.0000E-04 Note: One successful gmin step
Trying gmin =   1.0000E-05 Note: One successful gmin step
Trying gmin =   1.0000E-06 Note: One successful gmin step
Trying gmin =   1.0000E-07 Note: One successful gmin step
Trying gmin =   1.0000E-08 Warning: Further gmin increment
Trying gmin =   5.6234E-08 Note: One successful gmin step
Trying gmin =   2.3714E-08 Note: One successful gmin step
Trying gmin =   6.4938E-09 Warning: Further gmin increment
Trying gmin =   1.7154E-08 Note: One successful gmin step
Trying gmin =   1.0554E-08 Note: One successful gmin step
Trying gmin =   5.0937E-09 Note: One successful gmin step
Trying gmin =   1.7077E-09 Note: One successful gmin step
Trying gmin =   3.3152E-10 Note: One successful gmin step
Trying gmin =   3.3152E-11 Note: One successful gmin step
Trying gmin =   3.3152E-12 Note: One successful gmin step
Trying gmin =   1.0000E-12 Note: One successful gmin step
Note: True gmin stepping completed
 Reference value :  4.40000e-01pm                  =  -4.650194e+01
Doing analysis at TEMP = 85.000000 and TNOM = 27.000000


No. of Data Rows : 91
psrr100             =  -4.570587e+01
psrr100k            =  -2.464317e+01
Doing analysis at TEMP = 85.000000 and TNOM = 27.000000


No. of Data Rows : 86
temp_coeff = 1.618273e+02
Doing analysis at TEMP = 85.000000 and TNOM = 27.000000


No. of Data Rows : 141
vldo_sup_2          =  1.810178e+00
vldo_sup_2_8        =  1.812637e+00
line_reg = 3.073750e-03
Note: No ".plot", ".print", or ".fourier" lines; no simulations run
vin                 =  1.788077e+00
dropout = 2.407700e-02
