 Reference value :  0.00000e+00
No compatibility mode selected!


Circuit: * ldo netlist 

Doing analysis at TEMP = 0.000000 and TNOM = 27.000000


No. of Data Rows : 1
bg_out = 5.749528e-01
inn = 7.944718e-01
inp = 7.940733e-01
l1#branch = -2.77556e-17
ldo_out = 9.493247e-01
m.xm1.msky130_fd_pr__nfet_g5v0d10v5#body = 1.580257e-11
m.xm1.msky130_fd_pr__nfet_g5v0d10v5#dbody = 3.846168e-11
m.xm1.msky130_fd_pr__nfet_g5v0d10v5#sbody = 8.946015e-12
m.xm2.msky130_fd_pr__pfet_g5v0d10v5#body = 2.500000e+00
m.xm2.msky130_fd_pr__pfet_g5v0d10v5#dbody = 2.500000e+00
m.xm2.msky130_fd_pr__pfet_g5v0d10v5#sbody = 2.500000e+00
m.xm3.msky130_fd_pr__pfet_g5v0d10v5#body = 2.500000e+00
m.xm3.msky130_fd_pr__pfet_g5v0d10v5#dbody = 2.500000e+00
m.xm3.msky130_fd_pr__pfet_g5v0d10v5#sbody = 2.500000e+00
m.xm4.msky130_fd_pr__pfet_g5v0d10v5#body = 2.500000e+00
m.xm4.msky130_fd_pr__pfet_g5v0d10v5#dbody = 2.500000e+00
m.xm4.msky130_fd_pr__pfet_g5v0d10v5#sbody = 2.500000e+00
m.xm5.msky130_fd_pr__pfet_g5v0d10v5#body = 2.500000e+00
m.xm5.msky130_fd_pr__pfet_g5v0d10v5#dbody = 2.500000e+00
m.xm5.msky130_fd_pr__pfet_g5v0d10v5#sbody = 2.500000e+00
m.xm6.msky130_fd_pr__nfet_g5v0d10v5#body = 1.082957e-11
m.xm6.msky130_fd_pr__nfet_g5v0d10v5#dbody = 2.707391e-11
m.xm6.msky130_fd_pr__nfet_g5v0d10v5#sbody = 5.414786e-12
m.xm7.msky130_fd_pr__pfet_g5v0d10v5#body = 2.500000e+00
m.xm7.msky130_fd_pr__pfet_g5v0d10v5#dbody = 2.500000e+00
m.xm7.msky130_fd_pr__pfet_g5v0d10v5#sbody = 2.500000e+00
m.xm8.msky130_fd_pr__pfet_g5v0d10v5#body = 2.500000e+00
m.xm8.msky130_fd_pr__pfet_g5v0d10v5#dbody = 2.500000e+00
m.xm8.msky130_fd_pr__pfet_g5v0d10v5#sbody = 2.500000e+00
m.xm9.msky130_fd_pr__nfet_g5v0d10v5#body = 1.873915e-11
m.xm9.msky130_fd_pr__nfet_g5v0d10v5#dbody = 4.681585e-11
m.xm9.msky130_fd_pr__nfet_g5v0d10v5#sbody = 9.400885e-12
m.xm10.msky130_fd_pr__nfet_g5v0d10v5#body = 1.592486e-11
m.xm10.msky130_fd_pr__nfet_g5v0d10v5#dbody = 3.978083e-11
m.xm10.msky130_fd_pr__nfet_g5v0d10v5#sbody = 7.993742e-12
m.xm11.msky130_fd_pr__pfet_g5v0d10v5#body = 2.500000e+00
m.xm11.msky130_fd_pr__pfet_g5v0d10v5#dbody = 2.500000e+00
m.xm11.msky130_fd_pr__pfet_g5v0d10v5#sbody = 2.500000e+00
m.xm12.msky130_fd_pr__pfet_g5v0d10v5#body = 2.500000e+00
m.xm12.msky130_fd_pr__pfet_g5v0d10v5#dbody = 2.500000e+00
m.xm12.msky130_fd_pr__pfet_g5v0d10v5#sbody = 2.500000e+00
m.xm13.msky130_fd_pr__nfet_g5v0d10v5#body = 1.565515e-14
m.xm13.msky130_fd_pr__nfet_g5v0d10v5#dbody = 3.913778e-14
m.xm13.msky130_fd_pr__nfet_g5v0d10v5#sbody = 7.827679e-15
m.xm14.msky130_fd_pr__pfet_g5v0d10v5#body = 2.500000e+00
m.xm14.msky130_fd_pr__pfet_g5v0d10v5#dbody = 2.500000e+00
m.xm14.msky130_fd_pr__pfet_g5v0d10v5#sbody = 2.500000e+00
m.xm15.msky130_fd_pr__nfet_g5v0d10v5#body = 9.212854e-12
m.xm15.msky130_fd_pr__nfet_g5v0d10v5#dbody = 2.303213e-11
m.xm15.msky130_fd_pr__nfet_g5v0d10v5#sbody = 4.606427e-12
m.xm16.msky130_fd_pr__nfet_g5v0d10v5#body = 4.118102e-11
m.xm16.msky130_fd_pr__nfet_g5v0d10v5#dbody = 8.309062e-11
m.xm16.msky130_fd_pr__nfet_g5v0d10v5#sbody = 4.045242e-11
m.xm17.msky130_fd_pr__pfet_g5v0d10v5#body = 2.500000e+00
m.xm17.msky130_fd_pr__pfet_g5v0d10v5#dbody = 2.500000e+00
m.xm17.msky130_fd_pr__pfet_g5v0d10v5#sbody = 2.500000e+00
m.xm18.msky130_fd_pr__nfet_g5v0d10v5#body = 1.989904e-11
m.xm18.msky130_fd_pr__nfet_g5v0d10v5#dbody = 4.964436e-11
m.xm18.msky130_fd_pr__nfet_g5v0d10v5#sbody = 9.949528e-12
m.xm19.msky130_fd_pr__nfet_g5v0d10v5#body = 1.649737e-11
m.xm19.msky130_fd_pr__nfet_g5v0d10v5#dbody = 4.019858e-11
m.xm19.msky130_fd_pr__nfet_g5v0d10v5#sbody = 9.293414e-12
m.xm20.msky130_fd_pr__nfet_g5v0d10v5#body = 1.077951e-11
m.xm20.msky130_fd_pr__nfet_g5v0d10v5#dbody = 2.694877e-11
m.xm20.msky130_fd_pr__nfet_g5v0d10v5#sbody = 5.389762e-12
m.xm22.msky130_fd_pr__nfet_g5v0d10v5#body = 5.223936e-13
m.xm22.msky130_fd_pr__nfet_g5v0d10v5#dbody = 1.305983e-12
m.xm22.msky130_fd_pr__nfet_g5v0d10v5#sbody = 2.611981e-13
m.xm24.msky130_fd_pr__pfet_g5v0d10v5#body = 2.500000e+00
m.xm24.msky130_fd_pr__pfet_g5v0d10v5#dbody = 2.500000e+00
m.xm24.msky130_fd_pr__pfet_g5v0d10v5#sbody = 2.500000e+00
m.xm26.msky130_fd_pr__pfet_g5v0d10v5#body = 2.500000e+00
m.xm26.msky130_fd_pr__pfet_g5v0d10v5#dbody = 2.500000e+00
m.xm26.msky130_fd_pr__pfet_g5v0d10v5#sbody = 2.500000e+00
mir = 1.222411e+00
net1 = 6.088787e-01
net2 = 7.370133e-01
net3 = 6.093541e-01
net4 = 4.178531e-02
net5 = 1.277991e+00
net6 = 8.663576e-01
net7 = 6.089519e-01
net8 = 1.272733e+00
net9 = 1.497848e+00
net10 = 1.252328e-03
net11 = 1.587792e+00
net12 = 1.587792e+00
net13 = 0.000000e+00
out = 1.587792e+00
pos = 5.775509e-01
q.xq2.qsky130_fd_pr__pnp_05v5_w0p68l0p68#collcx = 3.235161e-07
q.xq3.qsky130_fd_pr__pnp_05v5_w0p68l0p68#collcx = 3.172581e-07
q.xq4.qsky130_fd_pr__pnp_05v5_w0p68l0p68#collcx = 3.172581e-07
q.xq8.qsky130_fd_pr__pnp_05v5_w0p68l0p68#collcx = 3.172581e-07
q.xq10.qsky130_fd_pr__pnp_05v5_w0p68l0p68#collcx = 3.172581e-07
q.xq12.qsky130_fd_pr__pnp_05v5_w0p68l0p68#collcx = 3.172581e-07
q.xq14.qsky130_fd_pr__pnp_05v5_w0p68l0p68#collcx = 3.172581e-07
q.xq16.qsky130_fd_pr__pnp_05v5_w0p68l0p68#collcx = 3.172581e-07
q.xq18.qsky130_fd_pr__pnp_05v5_w0p68l0p68#collcx = 3.172581e-07
vb = 8.623590e-01
vdd = 2.500000e+00
vs#branch = -8.55885e-05
vt#branch = 0.000000e+00
xc1.a = 0.000000e+00
xc1.b1 = 0.000000e+00
xc3.a = 1.587792e+00
xc3.b1 = 1.587792e+00
xr1.xsky130_fd_pr__res_xhigh_po_0p69.ra = 6.104252e-01
xr2.xsky130_fd_pr__res_xhigh_po_0p69.ra = 6.108274e-01
xr3.xsky130_fd_pr__res_xhigh_po_0p69.ra = 1.511691e-03
xr4.xsky130_fd_pr__res_xhigh_po_0p69.ra = 6.088798e-01
xr5.xsky130_fd_pr__res_xhigh_po_0p69.ra = 1.510645e-03
xr6.xsky130_fd_pr__res_xhigh_po_0p69.ra = 1.523454e-03
xr7.xsky130_fd_pr__res_xhigh_po_0p69.ra = 1.587792e+00
xr8.xsky130_fd_pr__res_xhigh_po_0p69.ra = 5.799159e-01
xr9.xsky130_fd_pr__res_xhigh_po_0p69.ra = 2.399711e-03
Doing analysis at TEMP = 0.000000 and TNOM = 27.000000


No. of Data Rows : 91
Note: Starting true gmin stepping
Trying gmin =   1.0000E-03 Note: One successful gmin step
Trying gmin =   1.0000E-04 Note: One successful gmin step
Trying gmin =   1.0000E-05 Note: One successful gmin step
Trying gmin =   1.0000E-06 Note: One successful gmin step
Trying gmin =   1.0000E-07 Note: One successful gmin step
Trying gmin =   1.0000E-08 Warning: Further gmin increment
Trying gmin =   5.6234E-08 Note: One successful gmin step
Trying gmin =   2.3714E-08 Warning: Further gmin increment
Trying gmin =   4.5316E-08 Warning: Further gmin increment
Trying gmin =   5.3280E-08 Note: One successful gmin step
Trying gmin =   4.9137E-08 Note: One successful gmin step
Trying gmin =   4.3518E-08 Warning: Further gmin increment
Trying gmin =   4.7668E-08 Note: One successful gmin step
Trying gmin =   4.5546E-08 Warning: Further gmin increment
Trying gmin =   4.7128E-08 Note: One successful gmin step
Trying gmin =   4.6860E-08 Note: One successful gmin step
Trying gmin =   4.6462E-08 Note: One successful gmin step
Trying gmin =   4.5871E-08 Note: One successful gmin step
Trying gmin =   4.4998E-08 Note: One successful gmin step
Trying gmin =   4.3720E-08 Note: One successful gmin step
Trying gmin =   4.1871E-08 Note: One successful gmin step
Trying gmin =   3.9242E-08 Note: One successful gmin step
Trying gmin =   3.5606E-08 Note: One successful gmin step
Trying gmin =   3.0773E-08 Note: One successful gmin step
Trying gmin =   2.4725E-08 Warning: Further gmin increment
Trying gmin =   2.9134E-08 Note: One successful gmin step
Trying gmin =   2.6839E-08 Warning: Further gmin increment
Trying gmin =   2.8543E-08 Note: One successful gmin step
Trying gmin =   2.7678E-08 Note: One successful gmin step
Trying gmin =   2.6839E-08 Note: One successful gmin step
Trying gmin =   2.5629E-08 Note: One successful gmin step
Trying gmin =   2.3914E-08 Note: One successful gmin step
Trying gmin =   2.1555E-08 Note: One successful gmin step
Trying gmin =   1.8446E-08 Note: One successful gmin step
Trying gmin =   1.4602E-08 Warning: Further gmin increment
Trying gmin =   1.7399E-08 Warning: Further gmin increment
Trying gmin =   1.8179E-08 Note: One successful gmin step
Trying gmin =   1.7785E-08 Note: One successful gmin step
Trying gmin =   1.7210E-08 Warning: Further gmin increment
Trying gmin =   1.7639E-08 Note: One successful gmin step
Trying gmin =   1.7423E-08 Warning: Further gmin increment
Trying gmin =   1.7585E-08 Note: One successful gmin step
Trying gmin =   1.7504E-08 Warning: Further gmin increment
Trying gmin =   1.7565E-08 Note: One successful gmin step
Trying gmin =   1.7534E-08 Warning: Further gmin increment
Trying gmin =   1.7557E-08 Note: One successful gmin step
Trying gmin =   1.7546E-08 Warning: Further gmin increment
Trying gmin =   1.7554E-08 Note: One successful gmin step
Trying gmin =   1.7550E-08 Warning: Further gmin increment
Trying gmin =   1.7553E-08 Note: One successful gmin step
Trying gmin =   1.7552E-08 Warning: Further gmin increment
Trying gmin =   1.7553E-08 Warning: Last gmin step failed
Warning: True gmin stepping failed
Note: Starting dynamic gmin stepping
Trying gmin =   1.0000E-03 Note: One successful gmin step
Trying gmin =   1.0000E-04 Note: One successful gmin step
Trying gmin =   1.0000E-05 Note: One successful gmin step
Trying gmin =   1.0000E-06 Warning: Further gmin increment
Trying gmin =   5.6234E-06 Note: One successful gmin step
Trying gmin =   4.2170E-06 Note: One successful gmin step
Trying gmin =   2.7384E-06 Note: One successful gmin step
Trying gmin =   1.4330E-06 Note: One successful gmin step
Trying gmin =   5.4247E-07 Note: One successful gmin step
Trying gmin =   1.2635E-07 Warning: Further gmin increment
Trying gmin =   3.7685E-07 Note: One successful gmin step
Trying gmin =   2.1821E-07 Warning: Further gmin increment
Trying gmin =   3.2873E-07 Note: One successful gmin step
Trying gmin =   2.6783E-07 Note: One successful gmin step
Trying gmin =   1.9696E-07 Warning: Further gmin increment
Trying gmin =   2.4802E-07 Note: One successful gmin step
Trying gmin =   2.2102E-07 Note: One successful gmin step
Trying gmin =   1.8593E-07 Warning: Further gmin increment
Trying gmin =   2.1167E-07 Warning: Further gmin increment
Trying gmin =   2.1864E-07 Warning: Further gmin increment
Trying gmin =   2.2042E-07 Warning: Further gmin increment
Trying gmin =   2.2087E-07 Warning: Further gmin increment
Trying gmin =   2.2098E-07 Warning: Further gmin increment
Trying gmin =   2.2101E-07 Warning: Last gmin step failed
Warning: Dynamic gmin stepping failed
Note: Starting source stepping
Supplies reduced to   0.0000% Note: One successful source step
Supplies reduced to   0.1000% Note: One successful source step
Supplies reduced to   0.2000% Note: One successful source step
Supplies reduced to   0.3500% Note: One successful source step
Supplies reduced to   0.5750% Note: One successful source step
Supplies reduced to   0.9125% Note: One successful source step
Supplies reduced to   1.4188% Note: One successful source step
Supplies reduced to   2.1781% Note: One successful source step
Supplies reduced to   3.3172% Note: One successful source step
Supplies reduced to   5.0258% Note: One successful source step
Supplies reduced to   7.5887% Note: One successful source step
Supplies reduced to  11.4330% Note: One successful source step
Supplies reduced to  17.1995% Note: One successful source step
Supplies reduced to  25.8493% Note: One successful source step
Supplies reduced to  38.8239% Supplies reduced to  25.8493% Note: One successful source step
Supplies reduced to  26.8493% Note: One successful source step
Supplies reduced to  28.3493% Note: One successful source step
Supplies reduced to  30.5993% Note: One successful source step
Supplies reduced to  33.9743% Supplies reduced to  30.5993% Note: One successful source step
Supplies reduced to  31.1055% Note: One successful source step
Supplies reduced to  31.8649% Note: One successful source step
Supplies reduced to  33.0040% Note: One successful source step
Supplies reduced to  34.7125% Note: One successful source step
Supplies reduced to  37.2754% Note: One successful source step
Supplies reduced to  41.1198% Note: One successful source step
Supplies reduced to  46.8863% Supplies reduced to  41.1198% Note: One successful source step
Supplies reduced to  41.9848% Note: One successful source step
Supplies reduced to  43.2822% Note: One successful source step
Supplies reduced to  45.2284% Note: One successful source step
Supplies reduced to  48.1477% Note: One successful source step
Supplies reduced to  51.0670% Note: One successful source step
Supplies reduced to  55.4459% Note: One successful source step
Supplies reduced to  62.0143% Note: One successful source step
Supplies reduced to  71.8670% Note: One successful source step
Supplies reduced to  86.6459% Note: One successful source step
Supplies reduced to 100.0000% Supplies reduced to  86.6459% Note: One successful source step
Supplies reduced to  87.6459% Note: One successful source step
Supplies reduced to  89.1459% Note: One successful source step
Supplies reduced to  91.3959% Note: One successful source step
Supplies reduced to  94.7709% Supplies reduced to  91.3959% Note: One successful source step
Supplies reduced to  91.9021% Note: One successful source step
Supplies reduced to  92.6615% Note: One successful source step
Supplies reduced to  93.8006% Note: One successful source step
Supplies reduced to  95.5092% Supplies reduced to  93.8006% Note: One successful source step
Supplies reduced to  94.0568% Supplies reduced to  93.8006% Note: One successful source step
Supplies reduced to  93.8390% Note: One successful source step
Supplies reduced to  93.8967% Supplies reduced to  93.8390% Note: One successful source step
Supplies reduced to  93.8477% Supplies reduced to  93.8390% Note: One successful source step
Supplies reduced to  93.8403% Supplies reduced to  93.8390% Note: One successful source step
Supplies reduced to  93.8392% Supplies reduced to  93.8390% Note: One successful source step
Supplies reduced to  93.8390% Note: One successful source step
Supplies reduced to  93.8391% Note: One successful source step
Supplies reduced to  93.8391% Warning: source stepping failed
doAnalyses: Too many iterations without convergence

dc simulation(s) aborted
Error(parse.c--checkvalid): vldo_sup_2_8: zero length vector.
Error: RHS "abs((vldo_sup_2_8-vldo_sup_2)/0.8)" invalid
Error(parse.c--checkvalid): line_reg: zero length vector.
Error(parse.c--checkvalid): vin: zero length vector.
Error: RHS "vin-1.764" invalid
Error(parse.c--checkvalid): dropout: zero length vector.
Error: no such vector dropout
Note: No ".plot", ".print", or ".fourier" lines; no simulations run
pm                  =  6.078523e+01
Doing analysis at TEMP = 0.000000 and TNOM = 27.000000


No. of Data Rows : 91
psrr100             =  -3.602247e+01
psrr100k            =  -5.299482e+00
Doing analysis at TEMP = 0.000000 and TNOM = 27.000000


No. of Data Rows : 86
temp_coeff = 7.723788e+01
Doing analysis at TEMP = 0.000000 and TNOM = 27.000000


Error: measure  vldo_sup_2  (AT) : out of interval
 meas dc vldo_sup_2 find ldo_out at=2 failed!


Error: measure  vldo_sup_2_8  (AT) : out of interval
 meas dc vldo_sup_2_8 find ldo_out at=2.8 failed!


Error: measure  vin  (WHEN) : out of interval
 meas dc vin when v(ldo_out)=1.764 failed!

