 Reference value :  0.00000e+00
No compatibility mode selected!


Circuit: * ldo netlist 

Doing analysis at TEMP = 27.000000 and TNOM = 27.000000


No. of Data Rows : 1
bg_out = 1.195701e+00
inn = 1.227383e+00
inp = 1.227346e+00
l1#branch = 5.551115e-17
ldo_out = 1.799369e+00
m.xm1.msky130_fd_pr__nfet_g5v0d10v5#body = 1.760625e-11
m.xm1.msky130_fd_pr__nfet_g5v0d10v5#dbody = 3.800238e-11
m.xm1.msky130_fd_pr__nfet_g5v0d10v5#sbody = 1.481637e-11
m.xm2.msky130_fd_pr__pfet_g5v0d10v5#body = 2.300000e+00
m.xm2.msky130_fd_pr__pfet_g5v0d10v5#dbody = 2.300000e+00
m.xm2.msky130_fd_pr__pfet_g5v0d10v5#sbody = 2.300000e+00
m.xm3.msky130_fd_pr__pfet_g5v0d10v5#body = 2.300000e+00
m.xm3.msky130_fd_pr__pfet_g5v0d10v5#dbody = 2.300000e+00
m.xm3.msky130_fd_pr__pfet_g5v0d10v5#sbody = 2.300000e+00
m.xm4.msky130_fd_pr__pfet_g5v0d10v5#body = 2.300000e+00
m.xm4.msky130_fd_pr__pfet_g5v0d10v5#dbody = 2.300000e+00
m.xm4.msky130_fd_pr__pfet_g5v0d10v5#sbody = 2.300000e+00
m.xm5.msky130_fd_pr__pfet_g5v0d10v5#body = 2.300000e+00
m.xm5.msky130_fd_pr__pfet_g5v0d10v5#dbody = 2.300000e+00
m.xm5.msky130_fd_pr__pfet_g5v0d10v5#sbody = 2.300000e+00
m.xm6.msky130_fd_pr__nfet_g5v0d10v5#body = 1.246140e-11
m.xm6.msky130_fd_pr__nfet_g5v0d10v5#dbody = 3.115350e-11
m.xm6.msky130_fd_pr__nfet_g5v0d10v5#sbody = 6.230706e-12
m.xm7.msky130_fd_pr__pfet_g5v0d10v5#body = 2.300000e+00
m.xm7.msky130_fd_pr__pfet_g5v0d10v5#dbody = 2.300000e+00
m.xm7.msky130_fd_pr__pfet_g5v0d10v5#sbody = 2.300000e+00
m.xm8.msky130_fd_pr__pfet_g5v0d10v5#body = 2.300000e+00
m.xm8.msky130_fd_pr__pfet_g5v0d10v5#dbody = 2.300000e+00
m.xm8.msky130_fd_pr__pfet_g5v0d10v5#sbody = 2.300000e+00
m.xm9.msky130_fd_pr__nfet_g5v0d10v5#body = 1.830882e-11
m.xm9.msky130_fd_pr__nfet_g5v0d10v5#dbody = 4.070744e-11
m.xm9.msky130_fd_pr__nfet_g5v0d10v5#sbody = 1.421901e-11
m.xm10.msky130_fd_pr__nfet_g5v0d10v5#body = 1.803299e-11
m.xm10.msky130_fd_pr__nfet_g5v0d10v5#dbody = 4.001788e-11
m.xm10.msky130_fd_pr__nfet_g5v0d10v5#sbody = 1.408109e-11
m.xm11.msky130_fd_pr__pfet_g5v0d10v5#body = 2.300000e+00
m.xm11.msky130_fd_pr__pfet_g5v0d10v5#dbody = 2.300000e+00
m.xm11.msky130_fd_pr__pfet_g5v0d10v5#sbody = 2.300000e+00
m.xm12.msky130_fd_pr__pfet_g5v0d10v5#body = 2.300000e+00
m.xm12.msky130_fd_pr__pfet_g5v0d10v5#dbody = 2.300000e+00
m.xm12.msky130_fd_pr__pfet_g5v0d10v5#sbody = 2.300000e+00
m.xm13.msky130_fd_pr__nfet_g5v0d10v5#body = 2.530942e-12
m.xm13.msky130_fd_pr__nfet_g5v0d10v5#dbody = 6.327343e-12
m.xm13.msky130_fd_pr__nfet_g5v0d10v5#sbody = 1.265481e-12
m.xm14.msky130_fd_pr__pfet_g5v0d10v5#body = 2.300000e+00
m.xm14.msky130_fd_pr__pfet_g5v0d10v5#dbody = 2.300000e+00
m.xm14.msky130_fd_pr__pfet_g5v0d10v5#sbody = 2.300000e+00
m.xm15.msky130_fd_pr__nfet_g5v0d10v5#body = 5.917713e-16
m.xm15.msky130_fd_pr__nfet_g5v0d10v5#dbody = 1.479404e-15
m.xm15.msky130_fd_pr__nfet_g5v0d10v5#sbody = 2.959099e-16
m.xm16.msky130_fd_pr__nfet_g5v0d10v5#body = 4.410104e-11
m.xm16.msky130_fd_pr__nfet_g5v0d10v5#dbody = 7.955927e-11
m.xm16.msky130_fd_pr__nfet_g5v0d10v5#sbody = 5.274385e-11
m.xm17.msky130_fd_pr__pfet_g5v0d10v5#body = 2.300000e+00
m.xm17.msky130_fd_pr__pfet_g5v0d10v5#dbody = 2.300000e+00
m.xm17.msky130_fd_pr__pfet_g5v0d10v5#sbody = 2.300000e+00
m.xm18.msky130_fd_pr__nfet_g5v0d10v5#body = 2.032666e-11
m.xm18.msky130_fd_pr__nfet_g5v0d10v5#dbody = 5.067520e-11
m.xm18.msky130_fd_pr__nfet_g5v0d10v5#sbody = 1.016334e-11
m.xm19.msky130_fd_pr__nfet_g5v0d10v5#body = 1.766651e-11
m.xm19.msky130_fd_pr__nfet_g5v0d10v5#dbody = 3.815303e-11
m.xm19.msky130_fd_pr__nfet_g5v0d10v5#sbody = 1.484650e-11
m.xm20.msky130_fd_pr__nfet_g5v0d10v5#body = 1.309538e-11
m.xm20.msky130_fd_pr__nfet_g5v0d10v5#dbody = 3.273845e-11
m.xm20.msky130_fd_pr__nfet_g5v0d10v5#sbody = 6.547705e-12
m.xm22.msky130_fd_pr__nfet_g5v0d10v5#body = 3.009333e-12
m.xm22.msky130_fd_pr__nfet_g5v0d10v5#dbody = 7.523327e-12
m.xm22.msky130_fd_pr__nfet_g5v0d10v5#sbody = 1.504671e-12
m.xm24.msky130_fd_pr__pfet_g5v0d10v5#body = 2.300000e+00
m.xm24.msky130_fd_pr__pfet_g5v0d10v5#dbody = 2.300000e+00
m.xm24.msky130_fd_pr__pfet_g5v0d10v5#sbody = 2.300000e+00
m.xm26.msky130_fd_pr__pfet_g5v0d10v5#body = 2.300000e+00
m.xm26.msky130_fd_pr__pfet_g5v0d10v5#dbody = 2.300000e+00
m.xm26.msky130_fd_pr__pfet_g5v0d10v5#sbody = 2.300000e+00
mir = 1.167620e+00
net1 = 7.274528e-01
net2 = 4.552948e-05
net3 = 7.873166e-01
net4 = 2.401795e-01
net5 = 1.172441e+00
net6 = 9.963449e-01
net7 = 7.872783e-01
net8 = 1.239814e+00
net9 = 1.261880e+00
net10 = 2.023424e-01
net11 = 1.620342e+00
net12 = 1.620342e+00
net13 = 0.000000e+00
out = 1.620342e+00
pos = 1.195915e+00
q.xq2.qsky130_fd_pr__pnp_05v5_w0p68l0p68#collcx = 2.277189e-03
q.xq3.qsky130_fd_pr__pnp_05v5_w0p68l0p68#collcx = 2.869869e-04
q.xq4.qsky130_fd_pr__pnp_05v5_w0p68l0p68#collcx = 2.869869e-04
q.xq8.qsky130_fd_pr__pnp_05v5_w0p68l0p68#collcx = 2.869869e-04
q.xq10.qsky130_fd_pr__pnp_05v5_w0p68l0p68#collcx = 2.869869e-04
q.xq12.qsky130_fd_pr__pnp_05v5_w0p68l0p68#collcx = 2.869869e-04
q.xq14.qsky130_fd_pr__pnp_05v5_w0p68l0p68#collcx = 2.869869e-04
q.xq16.qsky130_fd_pr__pnp_05v5_w0p68l0p68#collcx = 2.869869e-04
q.xq18.qsky130_fd_pr__pnp_05v5_w0p68l0p68#collcx = 2.869869e-04
vb = 1.047498e+00
vdd = 2.300000e+00
vs#branch = -1.81312e-04
vt#branch = 0.000000e+00
xc1.a = 0.000000e+00
xc1.b1 = 0.000000e+00
xc3.a = 1.620342e+00
xc3.b1 = 1.620342e+00
xr1.xsky130_fd_pr__res_xhigh_po_0p69.ra = 7.901816e-01
xr2.xsky130_fd_pr__res_xhigh_po_0p69.ra = 7.902198e-01
xr3.xsky130_fd_pr__res_xhigh_po_0p69.ra = 1.966647e-03
xr4.xsky130_fd_pr__res_xhigh_po_0p69.ra = 7.284275e-01
xr5.xsky130_fd_pr__res_xhigh_po_0p69.ra = 1.966545e-03
xr6.xsky130_fd_pr__res_xhigh_po_0p69.ra = 3.086558e-03
xr7.xsky130_fd_pr__res_xhigh_po_0p69.ra = 1.620342e+00
xr8.xsky130_fd_pr__res_xhigh_po_0p69.ra = 1.201045e+00
xr9.xsky130_fd_pr__res_xhigh_po_0p69.ra = 5.380538e-03
Doing analysis at TEMP = 27.000000 and TNOM = 27.000000


No. of Data Rows : 91
Error: -7.67551e+161, 2 out of range for ^
Error: -7.67551e+161, 2 out of range for ^
Note: Starting true gmin stepping
Trying gmin =   1.0000E-03 Note: One successful gmin step
Trying gmin =   1.0000E-04 Note: One successful gmin step
Trying gmin =   1.0000E-05 Note: One successful gmin step
Trying gmin =   1.0000E-06 Note: One successful gmin step
Trying gmin =   1.0000E-07 Note: One successful gmin step
Trying gmin =   1.0000E-08 Note: One successful gmin step
Trying gmin =   3.1623E-09 Note: One successful gmin step
Trying gmin =   5.6234E-10 Note: One successful gmin step
Trying gmin =   5.6234E-11 Note: One successful gmin step
Trying gmin =   5.6234E-12 Warning: Further gmin increment
Trying gmin =   3.1623E-11 Note: One successful gmin step
Trying gmin =   1.3335E-11 Note: One successful gmin step
Trying gmin =   3.6517E-12 Warning: Further gmin increment
Trying gmin =   9.6466E-12 Note: One successful gmin step
Trying gmin =   5.9352E-12 Note: One successful gmin step
Trying gmin =   2.8644E-12 Note: One successful gmin step
Trying gmin =   1.0000E-12 Note: One successful gmin step
Note: True gmin stepping completed
 Reference value :  1.14000e+00Note: Starting true gmin stepping
Trying gmin =   1.0000E-03 Note: One successful gmin step
Trying gmin =   1.0000E-04 Note: One successful gmin step
Trying gmin =   1.0000E-05 Note: One successful gmin step
Trying gmin =   1.0000E-06 Note: One successful gmin step
Trying gmin =   1.0000E-07 Note: One successful gmin step
Trying gmin =   1.0000E-08 Note: One successful gmin step
Trying gmin =   3.1623E-09 Note: One successful gmin step
Trying gmin =   5.6234E-10 Note: One successful gmin step
Trying gmin =   5.6234E-11 Note: One successful gmin step
Trying gmin =   5.6234E-12 Warning: Further gmin increment
Trying gmin =   3.1623E-11 Note: One successful gmin step
Trying gmin =   1.3335E-11 Note: One successful gmin step
Trying gmin =   3.6517E-12 Warning: Further gmin increment
Trying gmin =   9.6466E-12 Note: One successful gmin step
Trying gmin =   5.9352E-12 Note: One successful gmin step
Trying gmin =   2.8644E-12 Note: One successful gmin step
Trying gmin =   1.0000E-12 Note: One successful gmin step
Note: True gmin stepping completed
 Reference value :  4.40000e-01pm                  =  5.587227e+01
Doing analysis at TEMP = 27.000000 and TNOM = 27.000000


No. of Data Rows : 91
psrr100             =  -7.785224e+01
psrr100k            =  -2.784580e+01
Doing analysis at TEMP = 27.000000 and TNOM = 27.000000


No. of Data Rows : 86
temp_coeff = 1.653244e+02
Doing analysis at TEMP = 27.000000 and TNOM = 27.000000


No. of Data Rows : 141
vldo_sup_2          =  -3.950601e+01
vldo_sup_2_8        =  -3.920169e+01
line_reg = 3.804000e-01
Error(parse.c--checkvalid): vin: zero length vector.
Error: RHS "vin-1.764" invalid
Error(parse.c--checkvalid): dropout: zero length vector.
Error: no such vector dropout
Note: No ".plot", ".print", or ".fourier" lines; no simulations run

Error: measure  vin  (WHEN) : out of interval
 meas dc vin when v(ldo_out)=1.764 failed!

