 Reference value :  0.00000e+00
No compatibility mode selected!


Circuit: * ldo netlist 

Doing analysis at TEMP = 85.000000 and TNOM = 27.000000


No. of Data Rows : 1
bg_out = 1.197030e+00
inn = 1.143140e+00
inp = 1.143088e+00
l1#branch = 0.000000e+00
ldo_out = 1.800587e+00
m.xm1.msky130_fd_pr__nfet_g5v0d10v5#body = 2.913639e-11
m.xm1.msky130_fd_pr__nfet_g5v0d10v5#dbody = 5.645243e-11
m.xm1.msky130_fd_pr__nfet_g5v0d10v5#sbody = 3.095674e-11
m.xm2.msky130_fd_pr__pfet_g5v0d10v5#body = 2.300000e+00
m.xm2.msky130_fd_pr__pfet_g5v0d10v5#dbody = 2.300000e+00
m.xm2.msky130_fd_pr__pfet_g5v0d10v5#sbody = 2.300000e+00
m.xm3.msky130_fd_pr__pfet_g5v0d10v5#body = 2.300000e+00
m.xm3.msky130_fd_pr__pfet_g5v0d10v5#dbody = 2.300000e+00
m.xm3.msky130_fd_pr__pfet_g5v0d10v5#sbody = 2.300000e+00
m.xm4.msky130_fd_pr__pfet_g5v0d10v5#body = 2.300000e+00
m.xm4.msky130_fd_pr__pfet_g5v0d10v5#dbody = 2.300000e+00
m.xm4.msky130_fd_pr__pfet_g5v0d10v5#sbody = 2.300000e+00
m.xm5.msky130_fd_pr__pfet_g5v0d10v5#body = 2.300000e+00
m.xm5.msky130_fd_pr__pfet_g5v0d10v5#dbody = 2.300000e+00
m.xm5.msky130_fd_pr__pfet_g5v0d10v5#sbody = 2.300000e+00
m.xm6.msky130_fd_pr__nfet_g5v0d10v5#body = 2.043796e-11
m.xm6.msky130_fd_pr__nfet_g5v0d10v5#dbody = 5.109478e-11
m.xm6.msky130_fd_pr__nfet_g5v0d10v5#sbody = 1.021909e-11
m.xm7.msky130_fd_pr__pfet_g5v0d10v5#body = 2.300000e+00
m.xm7.msky130_fd_pr__pfet_g5v0d10v5#dbody = 2.300000e+00
m.xm7.msky130_fd_pr__pfet_g5v0d10v5#sbody = 2.300000e+00
m.xm8.msky130_fd_pr__pfet_g5v0d10v5#body = 2.300000e+00
m.xm8.msky130_fd_pr__pfet_g5v0d10v5#dbody = 2.300000e+00
m.xm8.msky130_fd_pr__pfet_g5v0d10v5#sbody = 2.300000e+00
m.xm9.msky130_fd_pr__nfet_g5v0d10v5#body = 2.730055e-11
m.xm9.msky130_fd_pr__nfet_g5v0d10v5#dbody = 5.466739e-11
m.xm9.msky130_fd_pr__nfet_g5v0d10v5#sbody = 2.723427e-11
m.xm10.msky130_fd_pr__nfet_g5v0d10v5#body = 2.708712e-11
m.xm10.msky130_fd_pr__nfet_g5v0d10v5#dbody = 5.413382e-11
m.xm10.msky130_fd_pr__nfet_g5v0d10v5#sbody = 2.712755e-11
m.xm11.msky130_fd_pr__pfet_g5v0d10v5#body = 2.300000e+00
m.xm11.msky130_fd_pr__pfet_g5v0d10v5#dbody = 2.300000e+00
m.xm11.msky130_fd_pr__pfet_g5v0d10v5#sbody = 2.300000e+00
m.xm12.msky130_fd_pr__pfet_g5v0d10v5#body = 2.300000e+00
m.xm12.msky130_fd_pr__pfet_g5v0d10v5#dbody = 2.300000e+00
m.xm12.msky130_fd_pr__pfet_g5v0d10v5#sbody = 2.300000e+00
m.xm13.msky130_fd_pr__nfet_g5v0d10v5#body = 5.145135e-12
m.xm13.msky130_fd_pr__nfet_g5v0d10v5#dbody = 1.286277e-11
m.xm13.msky130_fd_pr__nfet_g5v0d10v5#sbody = 2.572631e-12
m.xm14.msky130_fd_pr__pfet_g5v0d10v5#body = 2.300000e+00
m.xm14.msky130_fd_pr__pfet_g5v0d10v5#dbody = 2.300000e+00
m.xm14.msky130_fd_pr__pfet_g5v0d10v5#sbody = 2.300000e+00
m.xm15.msky130_fd_pr__nfet_g5v0d10v5#body = 3.677767e-14
m.xm15.msky130_fd_pr__nfet_g5v0d10v5#dbody = 9.194270e-14
m.xm15.msky130_fd_pr__nfet_g5v0d10v5#sbody = 1.839032e-14
m.xm16.msky130_fd_pr__nfet_g5v0d10v5#body = 5.366781e-11
m.xm16.msky130_fd_pr__nfet_g5v0d10v5#dbody = 9.496246e-11
m.xm16.msky130_fd_pr__nfet_g5v0d10v5#sbody = 6.604095e-11
m.xm17.msky130_fd_pr__pfet_g5v0d10v5#body = 2.300000e+00
m.xm17.msky130_fd_pr__pfet_g5v0d10v5#dbody = 2.300000e+00
m.xm17.msky130_fd_pr__pfet_g5v0d10v5#sbody = 2.300000e+00
m.xm18.msky130_fd_pr__nfet_g5v0d10v5#body = 1.962730e-11
m.xm18.msky130_fd_pr__nfet_g5v0d10v5#dbody = 4.906697e-11
m.xm18.msky130_fd_pr__nfet_g5v0d10v5#sbody = 9.813725e-12
m.xm19.msky130_fd_pr__nfet_g5v0d10v5#body = 2.921275e-11
m.xm19.msky130_fd_pr__nfet_g5v0d10v5#dbody = 5.664332e-11
m.xm19.msky130_fd_pr__nfet_g5v0d10v5#sbody = 3.099492e-11
m.xm20.msky130_fd_pr__nfet_g5v0d10v5#body = 1.449239e-11
m.xm20.msky130_fd_pr__nfet_g5v0d10v5#dbody = 3.623091e-11
m.xm20.msky130_fd_pr__nfet_g5v0d10v5#sbody = 7.246270e-12
m.xm22.msky130_fd_pr__nfet_g5v0d10v5#body = 1.148668e-11
m.xm22.msky130_fd_pr__nfet_g5v0d10v5#dbody = 2.871661e-11
m.xm22.msky130_fd_pr__nfet_g5v0d10v5#sbody = 5.743444e-12
m.xm24.msky130_fd_pr__pfet_g5v0d10v5#body = 2.300000e+00
m.xm24.msky130_fd_pr__pfet_g5v0d10v5#dbody = 2.300000e+00
m.xm24.msky130_fd_pr__pfet_g5v0d10v5#sbody = 2.300000e+00
m.xm26.msky130_fd_pr__pfet_g5v0d10v5#body = 2.300000e+00
m.xm26.msky130_fd_pr__pfet_g5v0d10v5#dbody = 2.300000e+00
m.xm26.msky130_fd_pr__pfet_g5v0d10v5#sbody = 2.300000e+00
mir = 1.250227e+00
net1 = 6.283689e-01
net2 = 7.090051e-05
net3 = 7.016457e-01
net4 = 2.308101e-01
net5 = 1.256336e+00
net6 = 9.462462e-01
net7 = 7.015931e-01
net8 = 1.330290e+00
net9 = 1.347364e+00
net10 = 2.501971e-01
net11 = 1.408635e+00
net12 = 1.408635e+00
net13 = 0.000000e+00
out = 1.408635e+00
pos = 1.197222e+00
q.xq2.qsky130_fd_pr__pnp_05v5_w0p68l0p68#collcx = 2.838328e-03
q.xq3.qsky130_fd_pr__pnp_05v5_w0p68l0p68#collcx = 3.580818e-04
q.xq4.qsky130_fd_pr__pnp_05v5_w0p68l0p68#collcx = 3.580818e-04
q.xq8.qsky130_fd_pr__pnp_05v5_w0p68l0p68#collcx = 3.580818e-04
q.xq10.qsky130_fd_pr__pnp_05v5_w0p68l0p68#collcx = 3.580818e-04
q.xq12.qsky130_fd_pr__pnp_05v5_w0p68l0p68#collcx = 3.580818e-04
q.xq14.qsky130_fd_pr__pnp_05v5_w0p68l0p68#collcx = 3.580818e-04
q.xq16.qsky130_fd_pr__pnp_05v5_w0p68l0p68#collcx = 3.580818e-04
q.xq18.qsky130_fd_pr__pnp_05v5_w0p68l0p68#collcx = 3.580818e-04
vb = 9.978903e-01
vdd = 2.300000e+00
vs#branch = -1.01346e-02
vt#branch = 0.000000e+00
xc1.a = 0.000000e+00
xc1.b1 = 0.000000e+00
xc3.a = 1.408635e+00
xc3.b1 = 1.408635e+00
xr1.xsky130_fd_pr__res_xhigh_po_0p69.ra = 7.098224e-01
xr2.xsky130_fd_pr__res_xhigh_po_0p69.ra = 7.098749e-01
xr3.xsky130_fd_pr__res_xhigh_po_0p69.ra = 4.908265e-03
xr4.xsky130_fd_pr__res_xhigh_po_0p69.ra = 6.317360e-01
xr5.xsky130_fd_pr__res_xhigh_po_0p69.ra = 4.907875e-03
xr6.xsky130_fd_pr__res_xhigh_po_0p69.ra = 8.714726e-03
xr7.xsky130_fd_pr__res_xhigh_po_0p69.ra = 1.408635e+00
xr8.xsky130_fd_pr__res_xhigh_po_0p69.ra = 1.211715e+00
xr9.xsky130_fd_pr__res_xhigh_po_0p69.ra = 1.520050e-02
Doing analysis at TEMP = 85.000000 and TNOM = 27.000000


No. of Data Rows : 91
Note: Starting true gmin stepping
Trying gmin =   1.0000E-03 Note: One successful gmin step
Trying gmin =   1.0000E-04 Note: One successful gmin step
Trying gmin =   1.0000E-05 Note: One successful gmin step
Trying gmin =   1.0000E-06 Note: One successful gmin step
Trying gmin =   1.0000E-07 Warning: Further gmin increment
Trying gmin =   5.6234E-07 Note: One successful gmin step
Trying gmin =   2.3714E-07 Note: One successful gmin step
Trying gmin =   6.4938E-08 Warning: Further gmin increment
Trying gmin =   1.7154E-07 Note: One successful gmin step
Trying gmin =   1.0554E-07 Warning: Further gmin increment
Trying gmin =   1.5193E-07 Note: One successful gmin step
Trying gmin =   1.2663E-07 Warning: Further gmin increment
Trying gmin =   1.4517E-07 Warning: Further gmin increment
Trying gmin =   1.5021E-07 Note: One successful gmin step
Trying gmin =   1.4767E-07 Note: One successful gmin step
Trying gmin =   1.4393E-07 Warning: Further gmin increment
Trying gmin =   1.4672E-07 Note: One successful gmin step
Trying gmin =   1.4532E-07 Warning: Further gmin increment
Trying gmin =   1.4637E-07 Note: One successful gmin step
Trying gmin =   1.4585E-07 Note: One successful gmin step
Trying gmin =   1.4506E-07 Warning: Further gmin increment
Trying gmin =   1.4565E-07 Warning: Further gmin increment
Trying gmin =   1.4580E-07 Note: One successful gmin step
Trying gmin =   1.4572E-07 Note: One successful gmin step
Trying gmin =   1.4561E-07 Warning: Further gmin increment
Trying gmin =   1.4569E-07 Warning: Further gmin increment
Trying gmin =   1.4572E-07 Note: One successful gmin step
Trying gmin =   1.4571E-07 Note: One successful gmin step
Trying gmin =   1.4569E-07 Warning: Further gmin increment
Trying gmin =   1.4570E-07 Note: One successful gmin step
Trying gmin =   1.4570E-07 Warning: Last gmin step failed
Warning: True gmin stepping failed
Note: Starting dynamic gmin stepping
Trying gmin =   1.0000E-03 Note: One successful gmin step
Trying gmin =   1.0000E-04 Note: One successful gmin step
Trying gmin =   1.0000E-05 Note: One successful gmin step
Trying gmin =   3.1623E-06 Note: One successful gmin step
Trying gmin =   5.6234E-07 Warning: Further gmin increment
Trying gmin =   2.0535E-06 Warning: Further gmin increment
Trying gmin =   2.8387E-06 Note: One successful gmin step
Trying gmin =   2.4144E-06 Note: One successful gmin step
Trying gmin =   2.0535E-06 Note: One successful gmin step
Trying gmin =   1.6108E-06 Note: One successful gmin step
Trying gmin =   1.1190E-06 Note: One successful gmin step
Trying gmin =   6.4792E-07 Note: One successful gmin step
Trying gmin =   2.8547E-07 Note: One successful gmin step
Trying gmin =   8.3489E-08 Note: One successful gmin step
Trying gmin =   1.3205E-08 Note: One successful gmin step
Trying gmin =   1.3205E-09 Note: One successful gmin step
Trying gmin =   1.3205E-10 Note: One successful gmin step
Trying gmin =   1.3205E-11 Note: One successful gmin step
Trying gmin =   1.3205E-12 Note: One successful gmin step
Trying gmin =   1.0000E-12 Note: One successful gmin step
Note: Dynamic gmin stepping completed
 Reference value :  2.80000e+00Note: Starting true gmin stepping
Trying gmin =   1.0000E-03 Note: One successful gmin step
Trying gmin =   1.0000E-04 Note: One successful gmin step
Trying gmin =   1.0000E-05 Note: One successful gmin step
Trying gmin =   1.0000E-06 Note: One successful gmin step
Trying gmin =   1.0000E-07 Note: One successful gmin step
Trying gmin =   1.0000E-08 Note: One successful gmin step
Trying gmin =   1.0000E-09 Warning: Further gmin increment
Trying gmin =   5.6234E-09 Note: One successful gmin step
Trying gmin =   2.3714E-09 Note: One successful gmin step
Trying gmin =   6.4938E-10 Warning: Further gmin increment
Trying gmin =   1.7154E-09 Note: One successful gmin step
Trying gmin =   1.0554E-09 Note: One successful gmin step
Trying gmin =   5.0937E-10 Note: One successful gmin step
Trying gmin =   1.7077E-10 Warning: Further gmin increment
Trying gmin =   3.8760E-10 Note: One successful gmin step
Trying gmin =   2.5728E-10 Note: One successful gmin step
Trying gmin =   1.3913E-10 Warning: Further gmin increment
Trying gmin =   2.2063E-10 Note: One successful gmin step
Trying gmin =   1.7520E-10 Note: One successful gmin step
Trying gmin =   1.2399E-10 Note: One successful gmin step
Trying gmin =   7.3811E-11 Note: One successful gmin step
Trying gmin =   3.3903E-11 Note: One successful gmin step
Trying gmin =   1.0554E-11 Note: One successful gmin step
Trying gmin =   1.8331E-12 Note: One successful gmin step
Trying gmin =   1.0000E-12 Note: One successful gmin step
Note: True gmin stepping completed
 Reference value :  1.04000e+00Note: Starting true gmin stepping
Trying gmin =   1.0000E-03 Note: One successful gmin step
Trying gmin =   1.0000E-04 Note: One successful gmin step
Trying gmin =   1.0000E-05 Note: One successful gmin step
Trying gmin =   1.0000E-06 Note: One successful gmin step
Trying gmin =   1.0000E-07 Note: One successful gmin step
Trying gmin =   1.0000E-08 Note: One successful gmin step
Trying gmin =   1.0000E-09 Note: One successful gmin step
Trying gmin =   1.0000E-10 Note: One successful gmin step
Trying gmin =   3.1623E-11 Note: One successful gmin step
Trying gmin =   5.6234E-12 Note: One successful gmin step
Trying gmin =   1.0000E-12 Note: One successful gmin step
Note: True gmin stepping completed
pm                  =  -8.454294e+01
Doing analysis at TEMP = 85.000000 and TNOM = 27.000000


No. of Data Rows : 91
psrr100             =  -5.092356e+01
psrr100k            =  -2.612507e+01
Doing analysis at TEMP = 85.000000 and TNOM = 27.000000


No. of Data Rows : 86
temp_coeff = 9.584950e+01
Doing analysis at TEMP = 85.000000 and TNOM = 27.000000


No. of Data Rows : 141
vldo_sup_2          =  1.799413e+00
vldo_sup_2_8        =  1.801593e+00
line_reg = 2.725000e-03
Note: No ".plot", ".print", or ".fourier" lines; no simulations run
vin                 =  1.779510e+00
dropout = 1.551000e-02
