 Reference value :  0.00000e+00
No compatibility mode selected!


Circuit: * ldo netlist 

Doing analysis at TEMP = 85.000000 and TNOM = 27.000000


No. of Data Rows : 1
bg_out = 1.091116e+00
inn = 1.049614e+00
inp = 1.049590e+00
l1#branch = 0.000000e+00
ldo_out = 1.793352e+00
m.xm1.msky130_fd_pr__nfet_g5v0d10v5#body = 3.138487e-11
m.xm1.msky130_fd_pr__nfet_g5v0d10v5#dbody = 6.178174e-11
m.xm1.msky130_fd_pr__nfet_g5v0d10v5#sbody = 3.237285e-11
m.xm2.msky130_fd_pr__pfet_g5v0d10v5#body = 2.500000e+00
m.xm2.msky130_fd_pr__pfet_g5v0d10v5#dbody = 2.500000e+00
m.xm2.msky130_fd_pr__pfet_g5v0d10v5#sbody = 2.500000e+00
m.xm3.msky130_fd_pr__pfet_g5v0d10v5#body = 2.500000e+00
m.xm3.msky130_fd_pr__pfet_g5v0d10v5#dbody = 2.500000e+00
m.xm3.msky130_fd_pr__pfet_g5v0d10v5#sbody = 2.500000e+00
m.xm4.msky130_fd_pr__pfet_g5v0d10v5#body = 2.500000e+00
m.xm4.msky130_fd_pr__pfet_g5v0d10v5#dbody = 2.500000e+00
m.xm4.msky130_fd_pr__pfet_g5v0d10v5#sbody = 2.500000e+00
m.xm5.msky130_fd_pr__pfet_g5v0d10v5#body = 2.500000e+00
m.xm5.msky130_fd_pr__pfet_g5v0d10v5#dbody = 2.500000e+00
m.xm5.msky130_fd_pr__pfet_g5v0d10v5#sbody = 2.500000e+00
m.xm6.msky130_fd_pr__nfet_g5v0d10v5#body = 1.926090e-11
m.xm6.msky130_fd_pr__nfet_g5v0d10v5#dbody = 4.815214e-11
m.xm6.msky130_fd_pr__nfet_g5v0d10v5#sbody = 9.630559e-12
m.xm7.msky130_fd_pr__pfet_g5v0d10v5#body = 2.500000e+00
m.xm7.msky130_fd_pr__pfet_g5v0d10v5#dbody = 2.500000e+00
m.xm7.msky130_fd_pr__pfet_g5v0d10v5#sbody = 2.500000e+00
m.xm8.msky130_fd_pr__pfet_g5v0d10v5#body = 2.500000e+00
m.xm8.msky130_fd_pr__pfet_g5v0d10v5#dbody = 2.500000e+00
m.xm8.msky130_fd_pr__pfet_g5v0d10v5#sbody = 2.500000e+00
m.xm9.msky130_fd_pr__nfet_g5v0d10v5#body = 2.946727e-11
m.xm9.msky130_fd_pr__nfet_g5v0d10v5#dbody = 5.988227e-11
m.xm9.msky130_fd_pr__nfet_g5v0d10v5#sbody = 2.851938e-11
m.xm10.msky130_fd_pr__nfet_g5v0d10v5#body = 2.924734e-11
m.xm10.msky130_fd_pr__nfet_g5v0d10v5#dbody = 5.933252e-11
m.xm10.msky130_fd_pr__nfet_g5v0d10v5#sbody = 2.840942e-11
m.xm11.msky130_fd_pr__pfet_g5v0d10v5#body = 2.500000e+00
m.xm11.msky130_fd_pr__pfet_g5v0d10v5#dbody = 2.500000e+00
m.xm11.msky130_fd_pr__pfet_g5v0d10v5#sbody = 2.500000e+00
m.xm12.msky130_fd_pr__pfet_g5v0d10v5#body = 2.500000e+00
m.xm12.msky130_fd_pr__pfet_g5v0d10v5#dbody = 2.500000e+00
m.xm12.msky130_fd_pr__pfet_g5v0d10v5#sbody = 2.500000e+00
m.xm13.msky130_fd_pr__nfet_g5v0d10v5#body = 5.245727e-12
m.xm13.msky130_fd_pr__nfet_g5v0d10v5#dbody = 1.311425e-11
m.xm13.msky130_fd_pr__nfet_g5v0d10v5#sbody = 2.622928e-12
m.xm14.msky130_fd_pr__pfet_g5v0d10v5#body = 2.500000e+00
m.xm14.msky130_fd_pr__pfet_g5v0d10v5#dbody = 2.500000e+00
m.xm14.msky130_fd_pr__pfet_g5v0d10v5#sbody = 2.500000e+00
m.xm15.msky130_fd_pr__nfet_g5v0d10v5#body = 6.818990e-14
m.xm15.msky130_fd_pr__nfet_g5v0d10v5#dbody = 1.704704e-13
m.xm15.msky130_fd_pr__nfet_g5v0d10v5#sbody = 3.409928e-14
m.xm16.msky130_fd_pr__nfet_g5v0d10v5#body = 5.487279e-11
m.xm16.msky130_fd_pr__nfet_g5v0d10v5#dbody = 1.004390e-10
m.xm16.msky130_fd_pr__nfet_g5v0d10v5#sbody = 6.417936e-11
m.xm17.msky130_fd_pr__pfet_g5v0d10v5#body = 2.500000e+00
m.xm17.msky130_fd_pr__pfet_g5v0d10v5#dbody = 2.500000e+00
m.xm17.msky130_fd_pr__pfet_g5v0d10v5#sbody = 2.500000e+00
m.xm18.msky130_fd_pr__nfet_g5v0d10v5#body = 2.183966e-11
m.xm18.msky130_fd_pr__nfet_g5v0d10v5#dbody = 5.451821e-11
m.xm18.msky130_fd_pr__nfet_g5v0d10v5#sbody = 1.091990e-11
m.xm19.msky130_fd_pr__nfet_g5v0d10v5#body = 3.142492e-11
m.xm19.msky130_fd_pr__nfet_g5v0d10v5#dbody = 6.188184e-11
m.xm19.msky130_fd_pr__nfet_g5v0d10v5#sbody = 3.239287e-11
m.xm20.msky130_fd_pr__nfet_g5v0d10v5#body = 1.266914e-11
m.xm20.msky130_fd_pr__nfet_g5v0d10v5#dbody = 3.167278e-11
m.xm20.msky130_fd_pr__nfet_g5v0d10v5#sbody = 6.334643e-12
m.xm22.msky130_fd_pr__nfet_g5v0d10v5#body = 1.163387e-11
m.xm22.msky130_fd_pr__nfet_g5v0d10v5#dbody = 2.908456e-11
m.xm22.msky130_fd_pr__nfet_g5v0d10v5#sbody = 5.817038e-12
m.xm24.msky130_fd_pr__pfet_g5v0d10v5#body = 2.500000e+00
m.xm24.msky130_fd_pr__pfet_g5v0d10v5#dbody = 2.500000e+00
m.xm24.msky130_fd_pr__pfet_g5v0d10v5#sbody = 2.500000e+00
m.xm26.msky130_fd_pr__pfet_g5v0d10v5#body = 2.500000e+00
m.xm26.msky130_fd_pr__pfet_g5v0d10v5#dbody = 2.500000e+00
m.xm26.msky130_fd_pr__pfet_g5v0d10v5#sbody = 2.500000e+00
mir = 1.423468e+00
net1 = 6.211264e-01
net2 = 1.320571e-04
net3 = 6.945757e-01
net4 = 2.473590e-01
net5 = 1.426671e+00
net6 = 8.571196e-01
net7 = 6.945505e-01
net8 = 1.500072e+00
net9 = 1.517663e+00
net10 = 2.632525e-01
net11 = 1.587475e+00
net12 = 1.587475e+00
net13 = 0.000000e+00
out = 1.587475e+00
pos = 1.091298e+00
q.xq2.qsky130_fd_pr__pnp_05v5_w0p68l0p68#collcx = 2.896729e-03
q.xq3.qsky130_fd_pr__pnp_05v5_w0p68l0p68#collcx = 3.643530e-04
q.xq4.qsky130_fd_pr__pnp_05v5_w0p68l0p68#collcx = 3.643530e-04
q.xq8.qsky130_fd_pr__pnp_05v5_w0p68l0p68#collcx = 3.643530e-04
q.xq10.qsky130_fd_pr__pnp_05v5_w0p68l0p68#collcx = 3.643530e-04
q.xq12.qsky130_fd_pr__pnp_05v5_w0p68l0p68#collcx = 3.643530e-04
q.xq14.qsky130_fd_pr__pnp_05v5_w0p68l0p68#collcx = 3.643530e-04
q.xq16.qsky130_fd_pr__pnp_05v5_w0p68l0p68#collcx = 3.643530e-04
q.xq18.qsky130_fd_pr__pnp_05v5_w0p68l0p68#collcx = 3.643530e-04
vb = 8.570683e-01
vdd = 2.500000e+00
vs#branch = -1.00969e-02
vt#branch = 0.000000e+00
xc1.a = 0.000000e+00
xc1.b1 = 0.000000e+00
xc3.a = 1.587475e+00
xc3.b1 = 1.587475e+00
xr1.xsky130_fd_pr__res_xhigh_po_0p69.ra = 7.029313e-01
xr2.xsky130_fd_pr__res_xhigh_po_0p69.ra = 7.029565e-01
xr3.xsky130_fd_pr__res_xhigh_po_0p69.ra = 5.097686e-03
xr4.xsky130_fd_pr__res_xhigh_po_0p69.ra = 6.245027e-01
xr5.xsky130_fd_pr__res_xhigh_po_0p69.ra = 5.097490e-03
xr6.xsky130_fd_pr__res_xhigh_po_0p69.ra = 8.859739e-03
xr7.xsky130_fd_pr__res_xhigh_po_0p69.ra = 1.587475e+00
xr8.xsky130_fd_pr__res_xhigh_po_0p69.ra = 1.104763e+00
xr9.xsky130_fd_pr__res_xhigh_po_0p69.ra = 1.389801e-02
Doing analysis at TEMP = 85.000000 and TNOM = 27.000000


No. of Data Rows : 91
Error: no such vector PM
Note: Starting true gmin stepping
Trying gmin =   1.0000E-03 Note: One successful gmin step
Trying gmin =   1.0000E-04 Note: One successful gmin step
Trying gmin =   1.0000E-05 Note: One successful gmin step
Trying gmin =   1.0000E-06 Note: One successful gmin step
Trying gmin =   1.0000E-07 Note: One successful gmin step
Trying gmin =   1.0000E-08 Warning: Further gmin increment
Trying gmin =   5.6234E-08 Warning: Further gmin increment
Trying gmin =   8.6596E-08 Warning: Further gmin increment
Trying gmin =   9.6466E-08 Note: One successful gmin step
Trying gmin =   9.1398E-08 Warning: Further gmin increment
Trying gmin =   9.5173E-08 Warning: Further gmin increment
Trying gmin =   9.6141E-08 Note: One successful gmin step
Trying gmin =   9.5656E-08 Warning: Further gmin increment
Trying gmin =   9.6020E-08 Note: One successful gmin step
Trying gmin =   9.5838E-08 Warning: Further gmin increment
Trying gmin =   9.5974E-08 Note: One successful gmin step
Trying gmin =   9.5906E-08 Warning: Further gmin increment
Trying gmin =   9.5957E-08 Note: One successful gmin step
Trying gmin =   9.5932E-08 Warning: Further gmin increment
Trying gmin =   9.5951E-08 Warning: Further gmin increment
Trying gmin =   9.5956E-08 Warning: Last gmin step failed
Warning: True gmin stepping failed
Note: Starting dynamic gmin stepping
Trying gmin =   1.0000E-03 Note: One successful gmin step
Trying gmin =   1.0000E-04 Note: One successful gmin step
Trying gmin =   1.0000E-05 Note: One successful gmin step
Trying gmin =   1.0000E-06 Note: One successful gmin step
Trying gmin =   1.0000E-07 Note: One successful gmin step
Trying gmin =   3.1623E-08 Note: One successful gmin step
Trying gmin =   5.6234E-09 Note: One successful gmin step
Trying gmin =   5.6234E-10 Note: One successful gmin step
Trying gmin =   5.6234E-11 Note: One successful gmin step
Trying gmin =   5.6234E-12 Note: One successful gmin step
Trying gmin =   1.0000E-12 Warning: Further gmin increment
Trying gmin =   3.6517E-12 Warning: Further gmin increment
Trying gmin =   5.0481E-12 Warning: Further gmin increment
Trying gmin =   5.4737E-12 Warning: Further gmin increment
Trying gmin =   5.5856E-12 Warning: Further gmin increment
Trying gmin =   5.6139E-12 Note: One successful gmin step
Trying gmin =   5.5998E-12 Note: One successful gmin step
Trying gmin =   5.5785E-12 Warning: Further gmin increment
Trying gmin =   5.5944E-12 Note: One successful gmin step
Trying gmin =   5.5865E-12 Note: One successful gmin step
Trying gmin =   5.5746E-12 Note: One successful gmin step
Trying gmin =   5.5568E-12 Note: One successful gmin step
Trying gmin =   5.5301E-12 Warning: Further gmin increment
Trying gmin =   5.5501E-12 Note: One successful gmin step
Trying gmin =   5.5401E-12 Note: One successful gmin step
Trying gmin =   5.5252E-12 Note: One successful gmin step
Trying gmin =   5.5028E-12 Note: One successful gmin step
Trying gmin =   5.4695E-12 Warning: Further gmin increment
Trying gmin =   5.4945E-12 Warning: Further gmin increment
Trying gmin =   5.5007E-12 Note: One successful gmin step
Trying gmin =   5.4976E-12 Note: One successful gmin step
Trying gmin =   5.4929E-12 Note: One successful gmin step
Trying gmin =   5.4859E-12 Note: One successful gmin step
Trying gmin =   5.4753E-12 Warning: Further gmin increment
Trying gmin =   5.4832E-12 Warning: Further gmin increment
Trying gmin =   5.4852E-12 Note: One successful gmin step
Trying gmin =   5.4842E-12 Warning: Further gmin increment
Trying gmin =   5.4850E-12 Note: One successful gmin step
Trying gmin =   5.4846E-12 Note: One successful gmin step
Trying gmin =   5.4840E-12 Warning: Further gmin increment
Trying gmin =   5.4844E-12 Warning: Last gmin step failed
Warning: Dynamic gmin stepping failed
Note: Starting source stepping
Supplies reduced to   0.0000% Note: One successful source step
Supplies reduced to   0.1000% Note: One successful source step
Supplies reduced to   0.2000% Note: One successful source step
Supplies reduced to   0.3500% Note: One successful source step
Supplies reduced to   0.5750% Note: One successful source step
Supplies reduced to   0.9125% Note: One successful source step
Supplies reduced to   1.4188% Note: One successful source step
Supplies reduced to   2.1781% Note: One successful source step
Supplies reduced to   3.3172% Note: One successful source step
Supplies reduced to   5.0258% Note: One successful source step
Supplies reduced to   7.5887% Note: One successful source step
Supplies reduced to  11.4330% Note: One successful source step
Supplies reduced to  17.1995% Note: One successful source step
Supplies reduced to  25.8493% Supplies reduced to  17.1995% Note: One successful source step
Supplies reduced to  18.1995% Note: One successful source step
Supplies reduced to  19.6995% Note: One successful source step
Supplies reduced to  21.9495% Note: One successful source step
Supplies reduced to  25.3245% Supplies reduced to  21.9495% Note: One successful source step
Supplies reduced to  22.1183% Note: One successful source step
Supplies reduced to  22.3714% Note: One successful source step
Supplies reduced to  22.7511% Note: One successful source step
Supplies reduced to  23.3206% Note: One successful source step
Supplies reduced to  24.1749% Note: One successful source step
Supplies reduced to  25.4563% Note: One successful source step
Supplies reduced to  27.3785% Note: One successful source step
Supplies reduced to  30.2618% Note: One successful source step
Supplies reduced to  34.5866% Note: One successful source step
Supplies reduced to  41.0740% Note: One successful source step
Supplies reduced to  50.8049% Note: One successful source step
Supplies reduced to  65.4014% Supplies reduced to  50.8049% Note: One successful source step
Supplies reduced to  51.8049% Note: One successful source step
Supplies reduced to  53.3049% Note: One successful source step
Supplies reduced to  55.5549% Note: One successful source step
Supplies reduced to  58.9299% Note: One successful source step
Supplies reduced to  63.9924% Supplies reduced to  58.9299% Note: One successful source step
Supplies reduced to  59.6893% Note: One successful source step
Supplies reduced to  60.8284% Note: One successful source step
Supplies reduced to  62.5370% Note: One successful source step
Supplies reduced to  65.0999% Supplies reduced to  62.5370% Note: One successful source step
Supplies reduced to  62.9214% Note: One successful source step
Supplies reduced to  63.4981% Note: One successful source step
Supplies reduced to  64.3630% Supplies reduced to  63.4981% Note: One successful source step
Supplies reduced to  63.6278% Note: One successful source step
Supplies reduced to  63.8224% Supplies reduced to  63.6278% Note: One successful source step
Supplies reduced to  63.6570% Note: One successful source step
Supplies reduced to  63.7008% Note: One successful source step
Supplies reduced to  63.7665% Supplies reduced to  63.7008% Note: One successful source step
Supplies reduced to  63.7106% Note: One successful source step
Supplies reduced to  63.7254% Note: One successful source step
Supplies reduced to  63.7476% Note: One successful source step
Supplies reduced to  63.7808% Supplies reduced to  63.7476% Note: One successful source step
Supplies reduced to  63.7526% Note: One successful source step
Supplies reduced to  63.7601% Note: One successful source step
Supplies reduced to  63.7713% Supplies reduced to  63.7601% Note: One successful source step
Supplies reduced to  63.7617% Supplies reduced to  63.7601% Note: One successful source step
Supplies reduced to  63.7603% Note: One successful source step
Supplies reduced to  63.7607% Supplies reduced to  63.7603% Note: One successful source step
Supplies reduced to  63.7604% Note: One successful source step
Supplies reduced to  63.7604% Note: One successful source step
Supplies reduced to  63.7606% Note: One successful source step
Supplies reduced to  63.7608% Supplies reduced to  63.7606% Note: One successful source step
Supplies reduced to  63.7606% Warning: source stepping failed
doAnalyses: Too many iterations without convergence

dc simulation(s) aborted
Error(parse.c--checkvalid): vldo_sup_2_8: zero length vector.
Error: RHS "abs((vldo_sup_2_8-vldo_sup_2)/0.8)" invalid
Error(parse.c--checkvalid): line_reg: zero length vector.
Error(parse.c--checkvalid): vin: zero length vector.
Error: RHS "vin-1.764" invalid
Error(parse.c--checkvalid): dropout: zero length vector.
Error: no such vector dropout
Note: No ".plot", ".print", or ".fourier" lines; no simulations run

Error: measure  pm  (AT) : out of interval
 meas ac pm find p when vdb(ldo_out)=0 failed!

Doing analysis at TEMP = 85.000000 and TNOM = 27.000000


No. of Data Rows : 91
psrr100             =  -5.599540e+01
psrr100k            =  -2.472484e+01
Doing analysis at TEMP = 85.000000 and TNOM = 27.000000


No. of Data Rows : 86
temp_coeff = 4.388379e+01
Doing analysis at TEMP = 85.000000 and TNOM = 27.000000


Error: measure  vldo_sup_2  (AT) : out of interval
 meas dc vldo_sup_2 find ldo_out at=2 failed!


Error: measure  vldo_sup_2_8  (AT) : out of interval
 meas dc vldo_sup_2_8 find ldo_out at=2.8 failed!


Error: measure  vin  (WHEN) : out of interval
 meas dc vin when v(ldo_out)=1.764 failed!

