 Reference value :  0.00000e+00
No compatibility mode selected!


Circuit: * ldo netlist 

Doing analysis at TEMP = 85.000000 and TNOM = 27.000000


No. of Data Rows : 1
bg_out = 1.203924e+00
inn = 1.150066e+00
inp = 1.150043e+00
l1#branch = 0.000000e+00
ldo_out = 1.811779e+00
m.xm1.msky130_fd_pr__nfet_g5v0d10v5#body = 3.091354e-11
m.xm1.msky130_fd_pr__nfet_g5v0d10v5#dbody = 5.969731e-11
m.xm1.msky130_fd_pr__nfet_g5v0d10v5#sbody = 3.304330e-11
m.xm2.msky130_fd_pr__pfet_g5v0d10v5#body = 2.500000e+00
m.xm2.msky130_fd_pr__pfet_g5v0d10v5#dbody = 2.500000e+00
m.xm2.msky130_fd_pr__pfet_g5v0d10v5#sbody = 2.500000e+00
m.xm3.msky130_fd_pr__pfet_g5v0d10v5#body = 2.500000e+00
m.xm3.msky130_fd_pr__pfet_g5v0d10v5#dbody = 2.500000e+00
m.xm3.msky130_fd_pr__pfet_g5v0d10v5#sbody = 2.500000e+00
m.xm4.msky130_fd_pr__pfet_g5v0d10v5#body = 2.500000e+00
m.xm4.msky130_fd_pr__pfet_g5v0d10v5#dbody = 2.500000e+00
m.xm4.msky130_fd_pr__pfet_g5v0d10v5#sbody = 2.500000e+00
m.xm5.msky130_fd_pr__pfet_g5v0d10v5#body = 2.500000e+00
m.xm5.msky130_fd_pr__pfet_g5v0d10v5#dbody = 2.500000e+00
m.xm5.msky130_fd_pr__pfet_g5v0d10v5#sbody = 2.500000e+00
m.xm6.msky130_fd_pr__nfet_g5v0d10v5#body = 1.985861e-11
m.xm6.msky130_fd_pr__nfet_g5v0d10v5#dbody = 4.964642e-11
m.xm6.msky130_fd_pr__nfet_g5v0d10v5#sbody = 9.929425e-12
m.xm7.msky130_fd_pr__pfet_g5v0d10v5#body = 2.500000e+00
m.xm7.msky130_fd_pr__pfet_g5v0d10v5#dbody = 2.500000e+00
m.xm7.msky130_fd_pr__pfet_g5v0d10v5#sbody = 2.500000e+00
m.xm8.msky130_fd_pr__pfet_g5v0d10v5#body = 2.500000e+00
m.xm8.msky130_fd_pr__pfet_g5v0d10v5#dbody = 2.500000e+00
m.xm8.msky130_fd_pr__pfet_g5v0d10v5#sbody = 2.500000e+00
m.xm9.msky130_fd_pr__nfet_g5v0d10v5#body = 2.911188e-11
m.xm9.msky130_fd_pr__nfet_g5v0d10v5#dbody = 5.793304e-11
m.xm9.msky130_fd_pr__nfet_g5v0d10v5#sbody = 2.940259e-11
m.xm10.msky130_fd_pr__nfet_g5v0d10v5#body = 2.898858e-11
m.xm10.msky130_fd_pr__nfet_g5v0d10v5#dbody = 5.762479e-11
m.xm10.msky130_fd_pr__nfet_g5v0d10v5#sbody = 2.934094e-11
m.xm11.msky130_fd_pr__pfet_g5v0d10v5#body = 2.500000e+00
m.xm11.msky130_fd_pr__pfet_g5v0d10v5#dbody = 2.500000e+00
m.xm11.msky130_fd_pr__pfet_g5v0d10v5#sbody = 2.500000e+00
m.xm12.msky130_fd_pr__pfet_g5v0d10v5#body = 2.500000e+00
m.xm12.msky130_fd_pr__pfet_g5v0d10v5#dbody = 2.500000e+00
m.xm12.msky130_fd_pr__pfet_g5v0d10v5#sbody = 2.500000e+00
m.xm13.msky130_fd_pr__nfet_g5v0d10v5#body = 5.775760e-12
m.xm13.msky130_fd_pr__nfet_g5v0d10v5#dbody = 1.443933e-11
m.xm13.msky130_fd_pr__nfet_g5v0d10v5#sbody = 2.887951e-12
m.xm14.msky130_fd_pr__pfet_g5v0d10v5#body = 2.500000e+00
m.xm14.msky130_fd_pr__pfet_g5v0d10v5#dbody = 2.500000e+00
m.xm14.msky130_fd_pr__pfet_g5v0d10v5#sbody = 2.500000e+00
m.xm15.msky130_fd_pr__nfet_g5v0d10v5#body = 3.363574e-14
m.xm15.msky130_fd_pr__nfet_g5v0d10v5#dbody = 8.408728e-14
m.xm15.msky130_fd_pr__nfet_g5v0d10v5#sbody = 1.681996e-14
m.xm16.msky130_fd_pr__nfet_g5v0d10v5#body = 5.618029e-11
m.xm16.msky130_fd_pr__nfet_g5v0d10v5#dbody = 1.011446e-10
m.xm16.msky130_fd_pr__nfet_g5v0d10v5#sbody = 6.739627e-11
m.xm17.msky130_fd_pr__pfet_g5v0d10v5#body = 2.500000e+00
m.xm17.msky130_fd_pr__pfet_g5v0d10v5#dbody = 2.500000e+00
m.xm17.msky130_fd_pr__pfet_g5v0d10v5#sbody = 2.500000e+00
m.xm18.msky130_fd_pr__nfet_g5v0d10v5#body = 1.535463e-11
m.xm18.msky130_fd_pr__nfet_g5v0d10v5#dbody = 3.838650e-11
m.xm18.msky130_fd_pr__nfet_g5v0d10v5#sbody = 7.677395e-12
m.xm19.msky130_fd_pr__nfet_g5v0d10v5#body = 3.095057e-11
m.xm19.msky130_fd_pr__nfet_g5v0d10v5#dbody = 5.978990e-11
m.xm19.msky130_fd_pr__nfet_g5v0d10v5#sbody = 3.306181e-11
m.xm20.msky130_fd_pr__nfet_g5v0d10v5#body = 1.353803e-11
m.xm20.msky130_fd_pr__nfet_g5v0d10v5#dbody = 3.384500e-11
m.xm20.msky130_fd_pr__nfet_g5v0d10v5#sbody = 6.769096e-12
m.xm22.msky130_fd_pr__nfet_g5v0d10v5#body = 1.208817e-11
m.xm22.msky130_fd_pr__nfet_g5v0d10v5#dbody = 3.022031e-11
m.xm22.msky130_fd_pr__nfet_g5v0d10v5#sbody = 6.044198e-12
m.xm24.msky130_fd_pr__pfet_g5v0d10v5#body = 2.500000e+00
m.xm24.msky130_fd_pr__pfet_g5v0d10v5#dbody = 2.500000e+00
m.xm24.msky130_fd_pr__pfet_g5v0d10v5#sbody = 2.500000e+00
m.xm26.msky130_fd_pr__pfet_g5v0d10v5#body = 2.500000e+00
m.xm26.msky130_fd_pr__pfet_g5v0d10v5#dbody = 2.500000e+00
m.xm26.msky130_fd_pr__pfet_g5v0d10v5#sbody = 2.500000e+00
mir = 1.347443e+00
net1 = 6.313473e-01
net2 = 6.497725e-05
net3 = 7.052062e-01
net4 = 2.813716e-01
net5 = 1.350406e+00
net6 = 9.028622e-01
net7 = 7.051820e-01
net8 = 1.434863e+00
net9 = 1.444727e+00
net10 = 3.035408e-01
net11 = 1.069833e+00
net12 = 1.069833e+00
net13 = 0.000000e+00
out = 1.069833e+00
pos = 1.204028e+00
q.xq2.qsky130_fd_pr__pnp_05v5_w0p68l0p68#collcx = 3.103114e-03
q.xq3.qsky130_fd_pr__pnp_05v5_w0p68l0p68#collcx = 3.918191e-04
q.xq4.qsky130_fd_pr__pnp_05v5_w0p68l0p68#collcx = 3.918191e-04
q.xq8.qsky130_fd_pr__pnp_05v5_w0p68l0p68#collcx = 3.918191e-04
q.xq10.qsky130_fd_pr__pnp_05v5_w0p68l0p68#collcx = 3.918191e-04
q.xq12.qsky130_fd_pr__pnp_05v5_w0p68l0p68#collcx = 3.918191e-04
q.xq14.qsky130_fd_pr__pnp_05v5_w0p68l0p68#collcx = 3.918191e-04
q.xq16.qsky130_fd_pr__pnp_05v5_w0p68l0p68#collcx = 3.918191e-04
q.xq18.qsky130_fd_pr__pnp_05v5_w0p68l0p68#collcx = 3.918191e-04
vb = 9.245051e-01
vdd = 2.500000e+00
vs#branch = -1.00799e-01
vt#branch = 0.000000e+00
xc1.a = 0.000000e+00
xc1.b1 = 0.000000e+00
xc3.a = 1.069833e+00
xc3.b1 = 1.069833e+00
xr1.xsky130_fd_pr__res_xhigh_po_0p69.ra = 7.083582e-01
xr2.xsky130_fd_pr__res_xhigh_po_0p69.ra = 7.083824e-01
xr3.xsky130_fd_pr__res_xhigh_po_0p69.ra = 1.893401e-03
xr4.xsky130_fd_pr__res_xhigh_po_0p69.ra = 6.326476e-01
xr5.xsky130_fd_pr__res_xhigh_po_0p69.ra = 1.893332e-03
xr6.xsky130_fd_pr__res_xhigh_po_0p69.ra = 3.365395e-03
xr7.xsky130_fd_pr__res_xhigh_po_0p69.ra = 1.069833e+00
xr8.xsky130_fd_pr__res_xhigh_po_0p69.ra = 1.209619e+00
xr9.xsky130_fd_pr__res_xhigh_po_0p69.ra = 5.865089e-03
Doing analysis at TEMP = 85.000000 and TNOM = 27.000000


No. of Data Rows : 91
Note: Starting true gmin stepping
Trying gmin =   1.0000E-03 Note: One successful gmin step
Trying gmin =   1.0000E-04 Note: One successful gmin step
Trying gmin =   1.0000E-05 Note: One successful gmin step
Trying gmin =   1.0000E-06 Note: One successful gmin step
Trying gmin =   1.0000E-07 Note: One successful gmin step
Trying gmin =   1.0000E-08 Note: One successful gmin step
Trying gmin =   3.1623E-09 Warning: Further gmin increment
Trying gmin =   7.4989E-09 Note: One successful gmin step
Trying gmin =   4.8697E-09 Note: One successful gmin step
Trying gmin =   2.5483E-09 Note: One successful gmin step
Trying gmin =   9.6466E-10 Note: One successful gmin step
Trying gmin =   2.2468E-10 Note: One successful gmin step
Trying gmin =   2.5255E-11 Note: One successful gmin step
Trying gmin =   2.5255E-12 Note: One successful gmin step
Trying gmin =   1.0000E-12 Note: One successful gmin step
Note: True gmin stepping completed
 Reference value :  1.16000e+00pm                  =  1.025417e+02
Doing analysis at TEMP = 85.000000 and TNOM = 27.000000


No. of Data Rows : 91
psrr100             =  -5.302436e+01
psrr100k            =  -2.398912e+01
Doing analysis at TEMP = 85.000000 and TNOM = 27.000000


No. of Data Rows : 86
temp_coeff = 1.779486e+02
Doing analysis at TEMP = 85.000000 and TNOM = 27.000000


No. of Data Rows : 141
vldo_sup_2          =  1.808360e+00
vldo_sup_2_8        =  1.812923e+00
line_reg = 5.703750e-03
Note: No ".plot", ".print", or ".fourier" lines; no simulations run
vin                 =  1.948156e+00
dropout = 1.841560e-01
