Note: Starting true gmin stepping
Trying gmin =   1.0000E-03 Note: One successful gmin step
Trying gmin =   1.0000E-04 Note: One successful gmin step
Trying gmin =   1.0000E-05 Note: One successful gmin step
Trying gmin =   3.1623E-06 Note: One successful gmin step
Trying gmin =   5.6234E-07 Note: One successful gmin step
Trying gmin =   5.6234E-08 Warning: Further gmin increment
Trying gmin =   3.1623E-07 Note: One successful gmin step
Trying gmin =   1.3335E-07 Note: One successful gmin step
Trying gmin =   3.6517E-08 Warning: Further gmin increment
Trying gmin =   9.6466E-08 Note: One successful gmin step
Trying gmin =   5.9352E-08 Warning: Further gmin increment
Trying gmin =   8.5436E-08 Note: One successful gmin step
Trying gmin =   7.1210E-08 Note: One successful gmin step
Trying gmin =   6.5011E-08 Note: One successful gmin step
Trying gmin =   5.6710E-08 Note: One successful gmin step
Trying gmin =   4.6203E-08 Warning: Further gmin increment
Trying gmin =   5.3878E-08 Note: One successful gmin step
Trying gmin =   4.9893E-08 Note: One successful gmin step
Trying gmin =   4.6203E-08 Note: One successful gmin step
Trying gmin =   4.1173E-08 Note: One successful gmin step
Trying gmin =   3.4636E-08 Note: One successful gmin step
Trying gmin =   2.6724E-08 Note: One successful gmin step
Trying gmin =   1.8112E-08 Note: One successful gmin step
Trying gmin =   1.0105E-08 Note: One successful gmin step
Trying gmin =   4.2115E-09 Note: One successful gmin step
Trying gmin =   1.1331E-09 Note: One successful gmin step
Trying gmin =   1.5813E-10 Note: One successful gmin step
Trying gmin =   1.5813E-11 Note: One successful gmin step
Trying gmin =   1.5813E-12 Note: One successful gmin step
Trying gmin =   1.0000E-12 Note: One successful gmin step
Note: True gmin stepping completed
 Reference value :  0.00000e+00
No compatibility mode selected!


Circuit: * ldo netlist 

Doing analysis at TEMP = 0.000000 and TNOM = 27.000000


No. of Data Rows : 1
bg_out = 6.072064e-01
inn = 8.208560e-01
inp = 8.205407e-01
l1#branch = 1.387779e-17
ldo_out = 9.162866e-01
m.xm1.msky130_fd_pr__nfet_g5v0d10v5#body = 1.113982e-11
m.xm1.msky130_fd_pr__nfet_g5v0d10v5#dbody = 2.643088e-11
m.xm1.msky130_fd_pr__nfet_g5v0d10v5#sbody = 6.988587e-12
m.xm2.msky130_fd_pr__pfet_g5v0d10v5#body = 2.100000e+00
m.xm2.msky130_fd_pr__pfet_g5v0d10v5#dbody = 2.100000e+00
m.xm2.msky130_fd_pr__pfet_g5v0d10v5#sbody = 2.100000e+00
m.xm3.msky130_fd_pr__pfet_g5v0d10v5#body = 2.100000e+00
m.xm3.msky130_fd_pr__pfet_g5v0d10v5#dbody = 2.100000e+00
m.xm3.msky130_fd_pr__pfet_g5v0d10v5#sbody = 2.100000e+00
m.xm4.msky130_fd_pr__pfet_g5v0d10v5#body = 2.100000e+00
m.xm4.msky130_fd_pr__pfet_g5v0d10v5#dbody = 2.100000e+00
m.xm4.msky130_fd_pr__pfet_g5v0d10v5#sbody = 2.100000e+00
m.xm5.msky130_fd_pr__pfet_g5v0d10v5#body = 2.100000e+00
m.xm5.msky130_fd_pr__pfet_g5v0d10v5#dbody = 2.100000e+00
m.xm5.msky130_fd_pr__pfet_g5v0d10v5#sbody = 2.100000e+00
m.xm6.msky130_fd_pr__nfet_g5v0d10v5#body = 1.071307e-11
m.xm6.msky130_fd_pr__nfet_g5v0d10v5#dbody = 2.678268e-11
m.xm6.msky130_fd_pr__nfet_g5v0d10v5#sbody = 5.356539e-12
m.xm7.msky130_fd_pr__pfet_g5v0d10v5#body = 2.100000e+00
m.xm7.msky130_fd_pr__pfet_g5v0d10v5#dbody = 2.100000e+00
m.xm7.msky130_fd_pr__pfet_g5v0d10v5#sbody = 2.100000e+00
m.xm8.msky130_fd_pr__pfet_g5v0d10v5#body = 2.100000e+00
m.xm8.msky130_fd_pr__pfet_g5v0d10v5#dbody = 2.100000e+00
m.xm8.msky130_fd_pr__pfet_g5v0d10v5#sbody = 2.100000e+00
m.xm9.msky130_fd_pr__nfet_g5v0d10v5#body = 1.344854e-11
m.xm9.msky130_fd_pr__nfet_g5v0d10v5#dbody = 3.356157e-11
m.xm9.msky130_fd_pr__nfet_g5v0d10v5#sbody = 6.784041e-12
m.xm10.msky130_fd_pr__nfet_g5v0d10v5#body = 1.110091e-11
m.xm10.msky130_fd_pr__nfet_g5v0d10v5#dbody = 2.769250e-11
m.xm10.msky130_fd_pr__nfet_g5v0d10v5#sbody = 5.610228e-12
m.xm11.msky130_fd_pr__pfet_g5v0d10v5#body = 2.100000e+00
m.xm11.msky130_fd_pr__pfet_g5v0d10v5#dbody = 2.100000e+00
m.xm11.msky130_fd_pr__pfet_g5v0d10v5#sbody = 2.100000e+00
m.xm12.msky130_fd_pr__pfet_g5v0d10v5#body = 2.100000e+00
m.xm12.msky130_fd_pr__pfet_g5v0d10v5#dbody = 2.100000e+00
m.xm12.msky130_fd_pr__pfet_g5v0d10v5#sbody = 2.100000e+00
m.xm13.msky130_fd_pr__nfet_g5v0d10v5#body = 2.988481e-14
m.xm13.msky130_fd_pr__nfet_g5v0d10v5#dbody = 7.471184e-14
m.xm13.msky130_fd_pr__nfet_g5v0d10v5#sbody = 1.494258e-14
m.xm14.msky130_fd_pr__pfet_g5v0d10v5#body = 2.100000e+00
m.xm14.msky130_fd_pr__pfet_g5v0d10v5#dbody = 2.100000e+00
m.xm14.msky130_fd_pr__pfet_g5v0d10v5#sbody = 2.100000e+00
m.xm15.msky130_fd_pr__nfet_g5v0d10v5#body = 1.997329e-13
m.xm15.msky130_fd_pr__nfet_g5v0d10v5#dbody = 4.993322e-13
m.xm15.msky130_fd_pr__nfet_g5v0d10v5#sbody = 9.986650e-14
m.xm16.msky130_fd_pr__nfet_g5v0d10v5#body = 3.651082e-11
m.xm16.msky130_fd_pr__nfet_g5v0d10v5#dbody = 7.075553e-11
m.xm16.msky130_fd_pr__nfet_g5v0d10v5#sbody = 3.877693e-11
m.xm17.msky130_fd_pr__pfet_g5v0d10v5#body = 2.100000e+00
m.xm17.msky130_fd_pr__pfet_g5v0d10v5#dbody = 2.100000e+00
m.xm17.msky130_fd_pr__pfet_g5v0d10v5#sbody = 2.100000e+00
m.xm18.msky130_fd_pr__nfet_g5v0d10v5#body = 1.477863e-11
m.xm18.msky130_fd_pr__nfet_g5v0d10v5#dbody = 3.694657e-11
m.xm18.msky130_fd_pr__nfet_g5v0d10v5#sbody = 7.389322e-12
m.xm19.msky130_fd_pr__nfet_g5v0d10v5#body = 1.160202e-11
m.xm19.msky130_fd_pr__nfet_g5v0d10v5#dbody = 2.758637e-11
m.xm19.msky130_fd_pr__nfet_g5v0d10v5#sbody = 7.219686e-12
m.xm20.msky130_fd_pr__nfet_g5v0d10v5#body = 1.066252e-11
m.xm20.msky130_fd_pr__nfet_g5v0d10v5#dbody = 2.665629e-11
m.xm20.msky130_fd_pr__nfet_g5v0d10v5#sbody = 5.331265e-12
m.xm22.msky130_fd_pr__nfet_g5v0d10v5#body = 7.093706e-13
m.xm22.msky130_fd_pr__nfet_g5v0d10v5#dbody = 1.773425e-12
m.xm22.msky130_fd_pr__nfet_g5v0d10v5#sbody = 3.546867e-13
m.xm24.msky130_fd_pr__pfet_g5v0d10v5#body = 2.100000e+00
m.xm24.msky130_fd_pr__pfet_g5v0d10v5#dbody = 2.100000e+00
m.xm24.msky130_fd_pr__pfet_g5v0d10v5#sbody = 2.100000e+00
m.xm26.msky130_fd_pr__pfet_g5v0d10v5#body = 2.100000e+00
m.xm26.msky130Note: Starting true gmin stepping
Trying gmin =   1.0000E-03 Note: One successful gmin step
Trying gmin =   1.0000E-04 Note: One successful gmin step
Trying gmin =   1.0000E-05 Note: One successful gmin step
Trying gmin =   3.1623E-06 Note: One successful gmin step
Trying gmin =   5.6234E-07 Note: One successful gmin step
Trying gmin =   5.6234E-08 Warning: Further gmin increment
Trying gmin =   3.1623E-07 Note: One successful gmin step
Trying gmin =   1.3335E-07 Note: One successful gmin step
Trying gmin =   3.6517E-08 Warning: Further gmin increment
Trying gmin =   9.6466E-08 Note: One successful gmin step
Trying gmin =   5.9352E-08 Warning: Further gmin increment
Trying gmin =   8.5436E-08 Note: One successful gmin step
Trying gmin =   7.1210E-08 Note: One successful gmin step
Trying gmin =   6.5011E-08 Note: One successful gmin step
Trying gmin =   5.6710E-08 Note: One successful gmin step
Trying gmin =   4.6203E-08 Warning: Further gmin increment
Trying gmin =   5.3878E-08 Note: One successful gmin step
Trying gmin =   4.9893E-08 Note: One successful gmin step
Trying gmin =   4.6203E-08 Note: One successful gmin step
Trying gmin =   4.1173E-08 Note: One successful gmin step
Trying gmin =   3.4636E-08 Note: One successful gmin step
Trying gmin =   2.6724E-08 Note: One successful gmin step
Trying gmin =   1.8112E-08 Note: One successful gmin step
Trying gmin =   1.0105E-08 Note: One successful gmin step
Trying gmin =   4.2115E-09 Note: One successful gmin step
Trying gmin =   1.1331E-09 Note: One successful gmin step
Trying gmin =   1.5813E-10 Note: One successful gmin step
Trying gmin =   1.5813E-11 Note: One successful gmin step
Trying gmin =   1.5813E-12 Note: One successful gmin step
Trying gmin =   1.0000E-12 Note: One successful gmin step
Note: True gmin stepping completed
 Reference value :  1.00000e+00_fd_pr__pfet_g5v0d10v5#dbody = 2.100000e+00
m.xm26.msky130_fd_pr__pfet_g5v0d10v5#sbody = 2.100000e+00
mir = 8.344340e-01
net1 = 5.999304e-01
net2 = 1.597161e-02
net3 = 6.003049e-01
net4 = 5.674282e-02
net5 = 8.714099e-01
net6 = 8.570382e-01
net7 = 5.999857e-01
net8 = 8.856787e-01
net9 = 1.073489e+00
net10 = 2.390628e-03
net11 = 1.182288e+00
net12 = 1.182288e+00
net13 = 0.000000e+00
out = 1.182288e+00
pos = 6.095476e-01
q.xq2.qsky130_fd_pr__pnp_05v5_w0p68l0p68#collcx = 2.230539e-07
q.xq3.qsky130_fd_pr__pnp_05v5_w0p68l0p68#collcx = 2.196480e-07
q.xq4.qsky130_fd_pr__pnp_05v5_w0p68l0p68#collcx = 2.196480e-07
q.xq8.qsky130_fd_pr__pnp_05v5_w0p68l0p68#collcx = 2.196480e-07
q.xq10.qsky130_fd_pr__pnp_05v5_w0p68l0p68#collcx = 2.196480e-07
q.xq12.qsky130_fd_pr__pnp_05v5_w0p68l0p68#collcx = 2.196480e-07
q.xq14.qsky130_fd_pr__pnp_05v5_w0p68l0p68#collcx = 2.196480e-07
q.xq16.qsky130_fd_pr__pnp_05v5_w0p68l0p68#collcx = 2.196480e-07
q.xq18.qsky130_fd_pr__pnp_05v5_w0p68l0p68#collcx = 2.196480e-07
vb = 8.529998e-01
vdd = 2.100000e+00
vs#branch = -7.73271e-05
vt#branch = 0.000000e+00
xc1.a = 0.000000e+00
xc1.b1 = 0.000000e+00
xc3.a = 1.182288e+00
xc3.b1 = 1.182288e+00
xr1.xsky130_fd_pr__res_xhigh_po_0p69.ra = 6.035954e-01
xr2.xsky130_fd_pr__res_xhigh_po_0p69.ra = 6.039145e-01
xr3.xsky130_fd_pr__res_xhigh_po_0p69.ra = 3.696699e-03
xr4.xsky130_fd_pr__res_xhigh_po_0p69.ra = 5.999327e-01
xr5.xsky130_fd_pr__res_xhigh_po_0p69.ra = 3.694639e-03
xr6.xsky130_fd_pr__res_xhigh_po_0p69.ra = 3.741256e-03
xr7.xsky130_fd_pr__res_xhigh_po_0p69.ra = 1.182288e+00
xr8.xsky130_fd_pr__res_xhigh_po_0p69.ra = 6.159692e-01
xr9.xsky130_fd_pr__res_xhigh_po_0p69.ra = 6.556349e-03
Doing analysis at TEMP = 0.000000 and TNOM = 27.000000


No. of Data Rows : 91
Note: Starting true gmin stepping
Trying gmin =   1.0000E-03 Note: One successful gmin step
Trying gmin =   1.0000E-04 Note: One successful gmin step
Trying gmin =   1.0000E-05 Note: One successful gmin step
Trying gmin =   3.1623E-06 Note: One successful gmin step
Trying gmin =   5.6234E-07 Note: One successful gmin step
Trying gmin =   5.6234E-08 Warning: Further gmin increment
Trying gmin =   3.1623E-07 Note: One successful gmin step
Trying gmin =   1.3335E-07 Note: One successful gmin step
Trying gmin =   3.6517E-08 Warning: Further gmin increment
Trying gmin =   9.6466E-08 Note: One successful gmin step
Trying gmin =   5.9352E-08 Warning: Further gmin increment
Trying gmin =   8.5436E-08 Note: One successful gmin step
Trying gmin =   7.1210E-08 Note: One successful gmin step
Trying gmin =   6.5011E-08 Note: One successful gmin step
Trying gmin =   5.6710E-08 Note: One successful gmin step
Trying gmin =   4.6203E-08 Warning: Further gmin increment
Trying gmin =   5.3878E-08 Note: One successful gmin step
Trying gmin =   4.9893E-08 Note: One successful gmin step
Trying gmin =   4.6203E-08 Note: One successful gmin step
Trying gmin =   4.1173E-08 Note: One successful gmin step
Trying gmin =   3.4636E-08 Note: One successful gmin step
Trying gmin =   2.6724E-08 Note: One successful gmin step
Trying gmin =   1.8112E-08 Note: One successful gmin step
Trying gmin =   1.0105E-08 Note: One successful gmin step
Trying gmin =   4.2115E-09 Note: One successful gmin step
Trying gmin =   1.1331E-09 Note: One successful gmin step
Trying gmin =   1.5813E-10 Note: One successful gmin step
Trying gmin =   1.5813E-11 Note: One successful gmin step
Trying gmin =   1.5813E-12 Note: One successful gmin step
Trying gmin =   1.0000E-12 Note: One successful gmin step
Note: True gmin stepping completed
 Reference value :  8.50000e+01Error: -6.54052e+163, 2 out of range for ^
Error: -6.54052e+163, 2 out of range for ^
Note: Starting true gmin stepping
Trying gmin =   1.0000E-03 Note: One successful gmin step
Trying gmin =   1.0000E-04 Note: One successful gmin step
Trying gmin =   1.0000E-05 Note: One successful gmin step
Trying gmin =   1.0000E-06 Note: One successful gmin step
Trying gmin =   1.0000E-07 Note: One successful gmin step
Trying gmin =   1.0000E-08 Warning: Further gmin increment
Trying gmin =   5.6234E-08 Note: One successful gmin step
Trying gmin =   2.3714E-08 Note: One successful gmin step
Trying gmin =   6.4938E-09 Warning: Further gmin increment
Trying gmin =   1.7154E-08 Note: One successful gmin step
Trying gmin =   1.0554E-08 Note: One successful gmin step
Trying gmin =   5.0937E-09 Note: One successful gmin step
Trying gmin =   1.7077E-09 Note: One successful gmin step
Trying gmin =   3.3152E-10 Note: One successful gmin step
Trying gmin =   3.3152E-11 Note: One successful gmin step
Trying gmin =   3.3152E-12 Note: One successful gmin step
Trying gmin =   1.0000E-12 Note: One successful gmin step
Note: True gmin stepping completed
 Reference value :  1.42000e+00Note: Starting true gmin stepping
Trying gmin =   1.0000E-03 Note: One successful gmin step
Trying gmin =   1.0000E-04 Note: One successful gmin step
Trying gmin =   1.0000E-05 Note: One successful gmin step
Trying gmin =   1.0000E-06 Note: One successful gmin step
Trying gmin =   1.0000E-07 Note: One successful gmin step
Trying gmin =   1.0000E-08 Warning: Further gmin increment
Trying gmin =   5.6234E-08 Note: One successful gmin step
Trying gmin =   2.3714E-08 Note: One successful gmin step
Trying gmin =   6.4938E-09 Warning: Further gmin increment
Trying gmin =   1.7154E-08 Note: One successful gmin step
Trying gmin =   1.0554E-08 Note: One successful gmin step
Trying gmin =   5.0937E-09 Note: One successful gmin step
Trying gmin =   1.7077E-09 Note: One successful gmin step
Trying gmin =   3.3152E-10 Note: One successful gmin step
Trying gmin =   3.3152E-11 Note: One successful gmin step
Trying gmin =   3.3152E-12 Note: One successful gmin step
Trying gmin =   1.0000E-12 Note: One successful gmin step
Note: True gmin stepping completed
Note: Starting true gmin stepping
Trying gmin =   1.0000E-03 Note: One successful gmin step
Trying gmin =   1.0000E-04 Note: One successful gmin step
Trying gmin =   1.0000E-05 Note: One successful gmin step
Trying gmin =   1.0000E-06 Note: One successful gmin step
Trying gmin =   1.0000E-07 Note: One successful gmin step
Trying gmin =   1.0000E-08 Note: One successful gmin step
Trying gmin =   1.0000E-09 Note: One successful gmin step
Trying gmin =   1.0000E-10 Note: One successful gmin step
Trying gmin =   1.0000E-11 Note: One successful gmin step
Trying gmin =   1.0000E-12 Warning: Further gmin increment
Trying gmin =   5.6234E-12 Note: One successful gmin step
Trying gmin =   2.3714E-12 Note: One successful gmin step
Trying gmin =   1.0000E-12 Warning: Further gmin increment
Trying gmin =   1.9110E-12 Note: One successful gmin step
Trying gmin =   1.3824E-12 Note: One successful gmin step
Trying gmin =   1.0000E-12 Warning: Further gmin increment
Trying gmin =   1.2749E-12 Note: One successful gmin step
Trying gmin =   1.1291E-12 Note: One successful gmin step
Trying gmin =   1.0000E-12 Note: One successful gmin step
Warning: True gmin stepping failed
Note: Starting dynamic gmin stepping
Trying gmin =   1.0000E-03 Note: One successful gmin step
Trying gmin =   1.0000E-04 Note: One successful gmin step
Trying gmin =   1.0000E-05 Note: One successful gmin step
Trying gmin =   1.0000E-06 Note: One successful gmin step
Trying gmin =   1.0000E-07 Note: One successful gmin step
Trying gmin =   1.0000E-08 Note: One successful gmin step
Trying gmin =   1.0000E-09 Note: One successful gmin step
Trying gmin =   1.0000E-10 Note: One successful gmin step
Trying gmin =   1.0000E-11 Note: One successful gmin step
Trying gmin =   1.0000E-12 Note: One successful gmin step
Trying gmin =   1.0000E-12 Note: One successful gmin step
Note: Dynamic gmin stepping completed
 Reference value :  4.00000e-02pm                  =  7.360157e+01
Doing analysis at TEMP = 0.000000 and TNOM = 27.000000


No. of Data Rows : 91
psrr100             =  -3.126142e+01
psrr100k            =  -4.022425e+00
Doing analysis at TEMP = 0.000000 and TNOM = 27.000000


No. of Data Rows : 86
temp_coeff = 9.389265e+01
Doing analysis at TEMP = 0.000000 and TNOM = 27.000000


No. of Data Rows : 141
vldo_sup_2          =  2.130909e+00
vldo_sup_2_8        =  2.883308e+00
line_reg = 9.404988e-01
Note: No ".plot", ".print", or ".fourier" lines; no simulations run
vin                 =  1.562239e+00
dropout = -2.01761e-01
