 Reference value :  0.00000e+00
No compatibility mode selected!


Circuit: * ldo netlist 

Doing analysis at TEMP = 85.000000 and TNOM = 27.000000


No. of Data Rows : 1
bg_out = 1.207224e+00
inn = 1.157766e+00
inp = 1.157718e+00
l1#branch = 0.000000e+00
ldo_out = 1.816767e+00
m.xm1.msky130_fd_pr__nfet_g5v0d10v5#body = 2.963320e-11
m.xm1.msky130_fd_pr__nfet_g5v0d10v5#dbody = 5.721270e-11
m.xm1.msky130_fd_pr__nfet_g5v0d10v5#sbody = 3.168688e-11
m.xm2.msky130_fd_pr__pfet_g5v0d10v5#body = 2.500000e+00
m.xm2.msky130_fd_pr__pfet_g5v0d10v5#dbody = 2.500000e+00
m.xm2.msky130_fd_pr__pfet_g5v0d10v5#sbody = 2.500000e+00
m.xm3.msky130_fd_pr__pfet_g5v0d10v5#body = 2.500000e+00
m.xm3.msky130_fd_pr__pfet_g5v0d10v5#dbody = 2.500000e+00
m.xm3.msky130_fd_pr__pfet_g5v0d10v5#sbody = 2.500000e+00
m.xm4.msky130_fd_pr__pfet_g5v0d10v5#body = 2.500000e+00
m.xm4.msky130_fd_pr__pfet_g5v0d10v5#dbody = 2.500000e+00
m.xm4.msky130_fd_pr__pfet_g5v0d10v5#sbody = 2.500000e+00
m.xm5.msky130_fd_pr__pfet_g5v0d10v5#body = 2.500000e+00
m.xm5.msky130_fd_pr__pfet_g5v0d10v5#dbody = 2.500000e+00
m.xm5.msky130_fd_pr__pfet_g5v0d10v5#sbody = 2.500000e+00
m.xm6.msky130_fd_pr__nfet_g5v0d10v5#body = 2.037455e-11
m.xm6.msky130_fd_pr__nfet_g5v0d10v5#dbody = 5.093624e-11
m.xm6.msky130_fd_pr__nfet_g5v0d10v5#sbody = 1.018739e-11
m.xm7.msky130_fd_pr__pfet_g5v0d10v5#body = 2.500000e+00
m.xm7.msky130_fd_pr__pfet_g5v0d10v5#dbody = 2.500000e+00
m.xm7.msky130_fd_pr__pfet_g5v0d10v5#sbody = 2.500000e+00
m.xm8.msky130_fd_pr__pfet_g5v0d10v5#body = 2.500000e+00
m.xm8.msky130_fd_pr__pfet_g5v0d10v5#dbody = 2.500000e+00
m.xm8.msky130_fd_pr__pfet_g5v0d10v5#sbody = 2.500000e+00
m.xm9.msky130_fd_pr__nfet_g5v0d10v5#body = 2.786702e-11
m.xm9.msky130_fd_pr__nfet_g5v0d10v5#dbody = 5.567391e-11
m.xm9.msky130_fd_pr__nfet_g5v0d10v5#sbody = 2.792714e-11
m.xm10.msky130_fd_pr__nfet_g5v0d10v5#body = 2.771917e-11
m.xm10.msky130_fd_pr__nfet_g5v0d10v5#dbody = 5.530429e-11
m.xm10.msky130_fd_pr__nfet_g5v0d10v5#sbody = 2.785322e-11
m.xm11.msky130_fd_pr__pfet_g5v0d10v5#body = 2.500000e+00
m.xm11.msky130_fd_pr__pfet_g5v0d10v5#dbody = 2.500000e+00
m.xm11.msky130_fd_pr__pfet_g5v0d10v5#sbody = 2.500000e+00
m.xm12.msky130_fd_pr__pfet_g5v0d10v5#body = 2.500000e+00
m.xm12.msky130_fd_pr__pfet_g5v0d10v5#dbody = 2.500000e+00
m.xm12.msky130_fd_pr__pfet_g5v0d10v5#sbody = 2.500000e+00
m.xm13.msky130_fd_pr__nfet_g5v0d10v5#body = 5.349599e-12
m.xm13.msky130_fd_pr__nfet_g5v0d10v5#dbody = 1.337393e-11
m.xm13.msky130_fd_pr__nfet_g5v0d10v5#sbody = 2.674870e-12
m.xm14.msky130_fd_pr__pfet_g5v0d10v5#body = 2.500000e+00
m.xm14.msky130_fd_pr__pfet_g5v0d10v5#dbody = 2.500000e+00
m.xm14.msky130_fd_pr__pfet_g5v0d10v5#sbody = 2.500000e+00
m.xm15.msky130_fd_pr__nfet_g5v0d10v5#body = 2.852418e-14
m.xm15.msky130_fd_pr__nfet_g5v0d10v5#dbody = 7.130914e-14
m.xm15.msky130_fd_pr__nfet_g5v0d10v5#sbody = 1.426341e-14
m.xm16.msky130_fd_pr__nfet_g5v0d10v5#body = 5.632840e-11
m.xm16.msky130_fd_pr__nfet_g5v0d10v5#dbody = 1.012705e-10
m.xm16.msky130_fd_pr__nfet_g5v0d10v5#sbody = 6.771467e-11
m.xm17.msky130_fd_pr__pfet_g5v0d10v5#body = 2.500000e+00
m.xm17.msky130_fd_pr__pfet_g5v0d10v5#dbody = 2.500000e+00
m.xm17.msky130_fd_pr__pfet_g5v0d10v5#sbody = 2.500000e+00
m.xm18.msky130_fd_pr__nfet_g5v0d10v5#body = 1.381519e-11
m.xm18.msky130_fd_pr__nfet_g5v0d10v5#dbody = 3.453789e-11
m.xm18.msky130_fd_pr__nfet_g5v0d10v5#sbody = 6.907673e-12
m.xm19.msky130_fd_pr__nfet_g5v0d10v5#body = 2.970776e-11
m.xm19.msky130_fd_pr__nfet_g5v0d10v5#dbody = 5.739911e-11
m.xm19.msky130_fd_pr__nfet_g5v0d10v5#sbody = 3.172416e-11
m.xm20.msky130_fd_pr__nfet_g5v0d10v5#body = 1.438034e-11
m.xm20.msky130_fd_pr__nfet_g5v0d10v5#dbody = 3.595076e-11
m.xm20.msky130_fd_pr__nfet_g5v0d10v5#sbody = 7.190248e-12
m.xm22.msky130_fd_pr__nfet_g5v0d10v5#body = 1.172900e-11
m.xm22.msky130_fd_pr__nfet_g5v0d10v5#dbody = 2.932239e-11
m.xm22.msky130_fd_pr__nfet_g5v0d10v5#sbody = 5.864613e-12
m.xm24.msky130_fd_pr__pfet_g5v0d10v5#body = 2.500000e+00
m.xm24.msky130_fd_pr__pfet_g5v0d10v5#dbody = 2.500000e+00
m.xm24.msky130_fd_pr__pfet_g5v0d10v5#sbody = 2.500000e+00
m.xm26.msky130_fd_pr__pfet_g5v0d10v5#body = 2.500000e+00
m.xm26.msky130_fd_pr__pfet_g5v0d10v5#dbody = 2.500000e+00
m.xm26.msky130_fd_pr__pfet_g5v0d10v5#sbody = 2.500000e+00
mir = 1.271591e+00
net1 = 6.384175e-01
net2 = 5.501178e-05
net3 = 7.117844e-01
net4 = 2.507825e-01
net5 = 1.277556e+00
net6 = 9.420622e-01
net7 = 7.117353e-01
net8 = 1.365357e+00
net9 = 1.377185e+00
net10 = 2.674079e-01
net11 = 9.446031e-01
net12 = 9.446031e-01
net13 = 0.000000e+00
out = 9.446031e-01
pos = 1.207342e+00
q.xq2.qsky130_fd_pr__pnp_05v5_w0p68l0p68#collcx = 2.935435e-03
q.xq3.qsky130_fd_pr__pnp_05v5_w0p68l0p68#collcx = 3.736889e-04
q.xq4.qsky130_fd_pr__pnp_05v5_w0p68l0p68#collcx = 3.736889e-04
q.xq8.qsky130_fd_pr__pnp_05v5_w0p68l0p68#collcx = 3.736889e-04
q.xq10.qsky130_fd_pr__pnp_05v5_w0p68l0p68#collcx = 3.736889e-04
q.xq12.qsky130_fd_pr__pnp_05v5_w0p68l0p68#collcx = 3.736889e-04
q.xq14.qsky130_fd_pr__pnp_05v5_w0p68l0p68#collcx = 3.736889e-04
q.xq16.qsky130_fd_pr__pnp_05v5_w0p68l0p68#collcx = 3.736889e-04
q.xq18.qsky130_fd_pr__pnp_05v5_w0p68l0p68#collcx = 3.736889e-04
vb = 9.898149e-01
vdd = 2.500000e+00
vs#branch = -1.01075e-01
vt#branch = 0.000000e+00
xc1.a = 0.000000e+00
xc1.b1 = 0.000000e+00
xc3.a = 9.446031e-01
xc3.b1 = 9.446031e-01
xr1.xsky130_fd_pr__res_xhigh_po_0p69.ra = 7.149197e-01
xr2.xsky130_fd_pr__res_xhigh_po_0p69.ra = 7.149689e-01
xr3.xsky130_fd_pr__res_xhigh_po_0p69.ra = 1.912105e-03
xr4.xsky130_fd_pr__res_xhigh_po_0p69.ra = 6.397087e-01
xr5.xsky130_fd_pr__res_xhigh_po_0p69.ra = 1.911965e-03
xr6.xsky130_fd_pr__res_xhigh_po_0p69.ra = 3.375445e-03
xr7.xsky130_fd_pr__res_xhigh_po_0p69.ra = 9.446031e-01
xr8.xsky130_fd_pr__res_xhigh_po_0p69.ra = 1.212949e+00
xr9.xsky130_fd_pr__res_xhigh_po_0p69.ra = 5.882673e-03
Doing analysis at TEMP = 85.000000 and TNOM = 27.000000


No. of Data Rows : 91
Note: Starting true gmin stepping
Trying gmin =   1.0000E-03 Note: One successful gmin step
Trying gmin =   1.0000E-04 Note: One successful gmin step
Trying gmin =   1.0000E-05 Note: One successful gmin step
Trying gmin =   1.0000E-06 Note: One successful gmin step
Trying gmin =   1.0000E-07 Note: One successful gmin step
Trying gmin =   1.0000E-08 Note: One successful gmin step
Trying gmin =   1.0000E-09 Warning: Further gmin increment
Trying gmin =   5.6234E-09 Note: One successful gmin step
Trying gmin =   2.3714E-09 Note: One successful gmin step
Trying gmin =   1.0000E-09 Warning: Further gmin increment
Trying gmin =   1.9110E-09 Note: One successful gmin step
Trying gmin =   1.3824E-09 Note: One successful gmin step
Trying gmin =   8.5053E-10 Note: One successful gmin step
Trying gmin =   4.1047E-10 Note: One successful gmin step
Trying gmin =   1.3762E-10 Note: One successful gmin step
Trying gmin =   2.6715E-11 Note: One successful gmin step
Trying gmin =   2.6715E-12 Note: One successful gmin step
Trying gmin =   1.0000E-12 Note: One successful gmin step
Note: True gmin stepping completed
 Reference value :  1.22000e+00Note: Starting true gmin stepping
Trying gmin =   1.0000E-03 Note: One successful gmin step
Trying gmin =   1.0000E-04 Note: One successful gmin step
Trying gmin =   1.0000E-05 Note: One successful gmin step
Trying gmin =   1.0000E-06 Note: One successful gmin step
Trying gmin =   1.0000E-07 Note: One successful gmin step
Trying gmin =   1.0000E-08 Note: One successful gmin step
Trying gmin =   1.0000E-09 Warning: Further gmin increment
Trying gmin =   5.6234E-09 Note: One successful gmin step
Trying gmin =   2.3714E-09 Note: One successful gmin step
Trying gmin =   1.0000E-09 Error: -4.03624e+182, 2 out of range for ^
Warning: Further gmin increment
Trying gmin =   1.9110E-09 Note: One successful gmin step
Trying gmin =   1.3824E-09 Warning: Further gmin increment
Trying gmin =   1.7624E-09 Note: One successful gmin step
Trying gmin =   1.5608E-09 Note: One successful gmin step
Trying gmin =   1.3009E-09 Note: One successful gmin step
Trying gmin =   9.8993E-10 Note: One successful gmin step
Trying gmin =   6.5709E-10 Note: One successful gmin step
Trying gmin =   3.5535E-10 Note: One successful gmin step
Trying gmin =   1.4132E-10 Note: One successful gmin step
Trying gmin =   3.5443E-11 Note: One successful gmin step
Trying gmin =   4.4516E-12 Note: One successful gmin step
Trying gmin =   1.0000E-12 Note: One successful gmin step
Note: True gmin stepping completed
pm                  =  1.497506e+02
Doing analysis at TEMP = 85.000000 and TNOM = 27.000000


No. of Data Rows : 91
psrr100             =  -5.235793e+01
psrr100k            =  -2.352157e+01
Doing analysis at TEMP = 85.000000 and TNOM = 27.000000


No. of Data Rows : 86
temp_coeff = 1.906663e+02
Doing analysis at TEMP = 85.000000 and TNOM = 27.000000


No. of Data Rows : 141
vldo_sup_2          =  1.779835e+00
vldo_sup_2_8        =  1.817154e+00
line_reg = 4.664875e-02
Note: No ".plot", ".print", or ".fourier" lines; no simulations run
vin                 =  1.985233e+00
dropout = 2.212330e-01
