 Reference value :  0.00000e+00
No compatibility mode selected!


Circuit: * ldo netlist 

Doing analysis at TEMP = 27.000000 and TNOM = 27.000000


No. of Data Rows : 1
bg_out = 1.098743e+00
inn = 1.145509e+00
inp = 1.145409e+00
l1#branch = 0.000000e+00
ldo_out = 1.805438e+00
m.xm1.msky130_fd_pr__nfet_g5v0d10v5#body = 1.260430e-11
m.xm1.msky130_fd_pr__nfet_g5v0d10v5#dbody = 2.659351e-11
m.xm1.msky130_fd_pr__nfet_g5v0d10v5#sbody = 1.121939e-11
m.xm2.msky130_fd_pr__pfet_g5v0d10v5#body = 2.100000e+00
m.xm2.msky130_fd_pr__pfet_g5v0d10v5#dbody = 2.100000e+00
m.xm2.msky130_fd_pr__pfet_g5v0d10v5#sbody = 2.100000e+00
m.xm3.msky130_fd_pr__pfet_g5v0d10v5#body = 2.100000e+00
m.xm3.msky130_fd_pr__pfet_g5v0d10v5#dbody = 2.100000e+00
m.xm3.msky130_fd_pr__pfet_g5v0d10v5#sbody = 2.100000e+00
m.xm4.msky130_fd_pr__pfet_g5v0d10v5#body = 2.100000e+00
m.xm4.msky130_fd_pr__pfet_g5v0d10v5#dbody = 2.100000e+00
m.xm4.msky130_fd_pr__pfet_g5v0d10v5#sbody = 2.100000e+00
m.xm5.msky130_fd_pr__pfet_g5v0d10v5#body = 2.100000e+00
m.xm5.msky130_fd_pr__pfet_g5v0d10v5#dbody = 2.100000e+00
m.xm5.msky130_fd_pr__pfet_g5v0d10v5#sbody = 2.100000e+00
m.xm6.msky130_fd_pr__nfet_g5v0d10v5#body = 1.221683e-11
m.xm6.msky130_fd_pr__nfet_g5v0d10v5#dbody = 3.054208e-11
m.xm6.msky130_fd_pr__nfet_g5v0d10v5#sbody = 6.108422e-12
m.xm7.msky130_fd_pr__pfet_g5v0d10v5#body = 2.100000e+00
m.xm7.msky130_fd_pr__pfet_g5v0d10v5#dbody = 2.100000e+00
m.xm7.msky130_fd_pr__pfet_g5v0d10v5#sbody = 2.100000e+00
m.xm8.msky130_fd_pr__pfet_g5v0d10v5#body = 2.100000e+00
m.xm8.msky130_fd_pr__pfet_g5v0d10v5#dbody = 2.100000e+00
m.xm8.msky130_fd_pr__pfet_g5v0d10v5#sbody = 2.100000e+00
m.xm9.msky130_fd_pr__nfet_g5v0d10v5#body = 1.333990e-11
m.xm9.msky130_fd_pr__nfet_g5v0d10v5#dbody = 2.957533e-11
m.xm9.msky130_fd_pr__nfet_g5v0d10v5#sbody = 1.044436e-11
m.xm10.msky130_fd_pr__nfet_g5v0d10v5#body = 1.320197e-11
m.xm10.msky130_fd_pr__nfet_g5v0d10v5#dbody = 2.923051e-11
m.xm10.msky130_fd_pr__nfet_g5v0d10v5#sbody = 1.037539e-11
m.xm11.msky130_fd_pr__pfet_g5v0d10v5#body = 2.100000e+00
m.xm11.msky130_fd_pr__pfet_g5v0d10v5#dbody = 2.100000e+00
m.xm11.msky130_fd_pr__pfet_g5v0d10v5#sbody = 2.100000e+00
m.xm12.msky130_fd_pr__pfet_g5v0d10v5#body = 2.100000e+00
m.xm12.msky130_fd_pr__pfet_g5v0d10v5#dbody = 2.100000e+00
m.xm12.msky130_fd_pr__pfet_g5v0d10v5#sbody = 2.100000e+00
m.xm13.msky130_fd_pr__nfet_g5v0d10v5#body = 1.885853e-12
m.xm13.msky130_fd_pr__nfet_g5v0d10v5#dbody = 4.714622e-12
m.xm13.msky130_fd_pr__nfet_g5v0d10v5#sbody = 9.429356e-13
m.xm14.msky130_fd_pr__pfet_g5v0d10v5#body = 2.100000e+00
m.xm14.msky130_fd_pr__pfet_g5v0d10v5#dbody = 2.100000e+00
m.xm14.msky130_fd_pr__pfet_g5v0d10v5#sbody = 2.100000e+00
m.xm15.msky130_fd_pr__nfet_g5v0d10v5#body = 4.840692e-17
m.xm15.msky130_fd_pr__nfet_g5v0d10v5#dbody = 1.210158e-16
m.xm15.msky130_fd_pr__nfet_g5v0d10v5#sbody = 2.420495e-17
m.xm16.msky130_fd_pr__nfet_g5v0d10v5#body = 4.057760e-11
m.xm16.msky130_fd_pr__nfet_g5v0d10v5#dbody = 7.279753e-11
m.xm16.msky130_fd_pr__nfet_g5v0d10v5#sbody = 4.893525e-11
m.xm17.msky130_fd_pr__pfet_g5v0d10v5#body = 2.100000e+00
m.xm17.msky130_fd_pr__pfet_g5v0d10v5#dbody = 2.100000e+00
m.xm17.msky130_fd_pr__pfet_g5v0d10v5#sbody = 2.100000e+00
m.xm18.msky130_fd_pr__nfet_g5v0d10v5#body = 4.228257e-12
m.xm18.msky130_fd_pr__nfet_g5v0d10v5#dbody = 1.057063e-11
m.xm18.msky130_fd_pr__nfet_g5v0d10v5#sbody = 2.114139e-12
m.xm19.msky130_fd_pr__nfet_g5v0d10v5#body = 1.273245e-11
m.xm19.msky130_fd_pr__nfet_g5v0d10v5#dbody = 2.691387e-11
m.xm19.msky130_fd_pr__nfet_g5v0d10v5#sbody = 1.128347e-11
m.xm20.msky130_fd_pr__nfet_g5v0d10v5#body = 1.278844e-11
m.xm20.msky130_fd_pr__nfet_g5v0d10v5#dbody = 3.197108e-11
m.xm20.msky130_fd_pr__nfet_g5v0d10v5#sbody = 6.394231e-12
m.xm22.msky130_fd_pr__nfet_g5v0d10v5#body = 2.461332e-12
m.xm22.msky130_fd_pr__nfet_g5v0d10v5#dbody = 6.153324e-12
m.xm22.msky130_fd_pr__nfet_g5v0d10v5#sbody = 1.230670e-12
m.xm24.msky130_fd_pr__pfet_g5v0d10v5#body = 2.100000e+00
m.xm24.msky130_fd_pr__pfet_g5v0d10v5#dbody = 2.100000e+00
m.xm24.msky130_fd_pr__pfet_g5v0d10v5#sbody = 2.100000e+00
m.xm26.msky130_fd_pr__pfet_g5v0d10v5#body = 2.100000e+00
m.xm26.msky130_fd_pr__pfet_g5v0d10v5#dbody = 2.100000e+00
m.xm26.msky130_fd_pr__pfet_g5v0d10v5#sbody = 2.100000e+00
mir = 8.113052e-01
net1 = 7.305628e-01
net2 = 3.724301e-06
net3 = 7.898032e-01
net4 = 1.963405e-01
net5 = 8.215567e-01
net6 = 9.767801e-01
net7 = 7.897017e-01
net8 = 9.049405e-01
net9 = 9.159746e-01
net10 = 1.507365e-01
net11 = 3.381283e-01
net12 = 3.381283e-01
net13 = 0.000000e+00
out = 3.381283e-01
pos = 1.098862e+00
q.xq2.qsky130_fd_pr__pnp_05v5_w0p68l0p68#collcx = 1.949420e-03
q.xq3.qsky130_fd_pr__pnp_05v5_w0p68l0p68#collcx = 2.470608e-04
q.xq4.qsky130_fd_pr__pnp_05v5_w0p68l0p68#collcx = 2.470608e-04
q.xq8.qsky130_fd_pr__pnp_05v5_w0p68l0p68#collcx = 2.470608e-04
q.xq10.qsky130_fd_pr__pnp_05v5_w0p68l0p68#collcx = 2.470608e-04
q.xq12.qsky130_fd_pr__pnp_05v5_w0p68l0p68#collcx = 2.470608e-04
q.xq14.qsky130_fd_pr__pnp_05v5_w0p68l0p68#collcx = 2.470608e-04
q.xq16.qsky130_fd_pr__pnp_05v5_w0p68l0p68#collcx = 2.470608e-04
q.xq18.qsky130_fd_pr__pnp_05v5_w0p68l0p68#collcx = 2.470608e-04
vb = 1.022943e+00
vdd = 2.100000e+00
vs#branch = -1.00421e-01
vt#branch = 0.000000e+00
xc1.a = 0.000000e+00
xc1.b1 = 0.000000e+00
xc3.a = 3.381283e-01
xc3.b1 = 3.381283e-01
xr1.xsky130_fd_pr__res_xhigh_po_0p69.ra = 7.974729e-01
xr2.xsky130_fd_pr__res_xhigh_po_0p69.ra = 7.975744e-01
xr3.xsky130_fd_pr__res_xhigh_po_0p69.ra = 5.400507e-03
xr4.xsky130_fd_pr__res_xhigh_po_0p69.ra = 7.330838e-01
xr5.xsky130_fd_pr__res_xhigh_po_0p69.ra = 5.399767e-03
xr6.xsky130_fd_pr__res_xhigh_po_0p69.ra = 8.252042e-03
xr7.xsky130_fd_pr__res_xhigh_po_0p69.ra = 3.381283e-01
xr8.xsky130_fd_pr__res_xhigh_po_0p69.ra = 1.111404e+00
xr9.xsky130_fd_pr__res_xhigh_po_0p69.ra = 1.294843e-02
Doing analysis at TEMP = 27.000000 and TNOM = 27.000000


No. of Data Rows : 91
Error: no such vector PM
Note: Starting true gmin stepping
Trying gmin =   1.0000E-03 Note: One successful gmin step
Trying gmin =   1.0000E-04 Note: One successful gmin step
Trying gmin =   1.0000E-05 Note: One successful gmin step
Trying gmin =   1.0000E-06 Note: One successful gmin step
Trying gmin =   1.0000E-07 Note: One successful gmin step
Trying gmin =   1.0000E-08 Note: One successful gmin step
Trying gmin =   1.0000E-09 Note: One successful gmin step
Trying gmin =   1.0000E-10 Warning: Further gmin increment
Trying gmin =   5.6234E-10 Note: One successful gmin step
Trying gmin =   3.1623E-10 Note: One successful gmin step
Trying gmin =   1.3335E-10 Warning: Further gmin increment
Trying gmin =   2.5483E-10 Note: One successful gmin step
Trying gmin =   1.8434E-10 Warning: Further gmin increment
Trying gmin =   2.3501E-10 Note: One successful gmin step
Trying gmin =   2.0814E-10 Note: One successful gmin step
Trying gmin =   1.7348E-10 Note: One successful gmin step
Trying gmin =   1.3201E-10 Note: One successful gmin step
Trying gmin =   8.7625E-11 Note: One successful gmin step
Trying gmin =   4.7387E-11 Note: One successful gmin step
Trying gmin =   1.8845E-11 Note: One successful gmin step
Trying gmin =   4.7264E-12 Note: One successful gmin step
Trying gmin =   1.0000E-12 Note: One successful gmin step
Note: True gmin stepping completed
 Reference value :  1.30000e+00Note: Starting true gmin stepping
Trying gmin =   1.0000E-03 Note: One successful gmin step
Trying gmin =   1.0000E-04 Note: One successful gmin step
Trying gmin =   1.0000E-05 Note: One successful gmin step
Trying gmin =   1.0000E-06 Note: One successful gmin step
Trying gmin =   1.0000E-07 Note: One successful gmin step
Trying gmin =   1.0000E-08 Note: One successful gmin step
Trying gmin =   1.0000E-09 Note: One successful gmin step
Trying gmin =   1.0000E-10 Warning: Further gmin increment
Trying gmin =   5.6234E-10 Note: One successful gmin step
Trying gmin =   2.3714E-10 Note: One successful gmin step
Trying gmin =   1.0000E-10 Warning: Further gmin increment
Trying gmin =   1.9110E-10 Note: One successful gmin step
Trying gmin =   1.3824E-10 Warning: Further gmin increment
Trying gmin =   1.7624E-10 Note: One successful gmin step
Trying gmin =   1.5608E-10 Warning: Further gmin increment
Trying gmin =   1.7097E-10 Note: One successful gmin step
Trying gmin =   1.6585E-10 Note: One successful gmin step
Trying gmin =   1.5847E-10 Note: One successful gmin step
Trying gmin =   1.4801E-10 Note: One successful gmin step
Trying gmin =   1.3360E-10 Note: One successful gmin step
Trying gmin =   1.1456E-10 Note: One successful gmin step
Trying gmin =   9.0978E-11 Note: One successful gmin step
Trying gmin =   6.4383E-11 Note: One successful gmin step
Trying gmin =   3.8328E-11 Note: One successful gmin step
Trying gmin =   1.7605E-11 Note: One successful gmin step
Trying gmin =   5.4804E-12 Note: One successful gmin step
Trying gmin =   1.0000E-12 Note: One successful gmin step
Note: True gmin stepping completed
 Reference value :  1.08000e+00
Error: measure  pm  (AT) : out of interval
 meas ac pm find p when vdb(ldo_out)=0 failed!

Doing analysis at TEMP = 27.000000 and TNOM = 27.000000


No. of Data Rows : 91
psrr100             =  -5.434558e+01
psrr100k            =  -1.784559e+01
Doing analysis at TEMP = 27.000000 and TNOM = 27.000000


No. of Data Rows : 86
temp_coeff = 2.758159e+01
Doing analysis at TEMP = 27.000000 and TNOM = 27.000000


No. of Data Rows : 141
vldo_sup_2          =  1.798926e+00
vldo_sup_2_8        =  1.805683e+00
line_reg = 8.446250e-03
Note: No ".plot", ".print", or ".fourier" lines; no simulations run
vin                 =  1.968085e+00
dropout = 2.040850e-01
