 Reference value :  0.00000e+00
No compatibility mode selected!


Circuit: * ldo netlist 

Doing analysis at TEMP = 85.000000 and TNOM = 27.000000


No. of Data Rows : 1
bg_out = 1.199854e+00
inn = 1.146428e+00
inp = 1.146374e+00
l1#branch = 0.000000e+00
ldo_out = 1.805030e+00
m.xm1.msky130_fd_pr__nfet_g5v0d10v5#body = 2.593893e-11
m.xm1.msky130_fd_pr__nfet_g5v0d10v5#dbody = 4.731886e-11
m.xm1.msky130_fd_pr__nfet_g5v0d10v5#sbody = 3.049794e-11
m.xm2.msky130_fd_pr__pfet_g5v0d10v5#body = 2.100000e+00
m.xm2.msky130_fd_pr__pfet_g5v0d10v5#dbody = 2.100000e+00
m.xm2.msky130_fd_pr__pfet_g5v0d10v5#sbody = 2.100000e+00
m.xm3.msky130_fd_pr__pfet_g5v0d10v5#body = 2.100000e+00
m.xm3.msky130_fd_pr__pfet_g5v0d10v5#dbody = 2.100000e+00
m.xm3.msky130_fd_pr__pfet_g5v0d10v5#sbody = 2.100000e+00
m.xm4.msky130_fd_pr__pfet_g5v0d10v5#body = 2.100000e+00
m.xm4.msky130_fd_pr__pfet_g5v0d10v5#dbody = 2.100000e+00
m.xm4.msky130_fd_pr__pfet_g5v0d10v5#sbody = 2.100000e+00
m.xm5.msky130_fd_pr__pfet_g5v0d10v5#body = 2.100000e+00
m.xm5.msky130_fd_pr__pfet_g5v0d10v5#dbody = 2.100000e+00
m.xm5.msky130_fd_pr__pfet_g5v0d10v5#sbody = 2.100000e+00
m.xm6.msky130_fd_pr__nfet_g5v0d10v5#body = 1.979748e-11
m.xm6.msky130_fd_pr__nfet_g5v0d10v5#dbody = 4.949359e-11
m.xm6.msky130_fd_pr__nfet_g5v0d10v5#sbody = 9.898854e-12
m.xm7.msky130_fd_pr__pfet_g5v0d10v5#body = 2.100000e+00
m.xm7.msky130_fd_pr__pfet_g5v0d10v5#dbody = 2.100000e+00
m.xm7.msky130_fd_pr__pfet_g5v0d10v5#sbody = 2.100000e+00
m.xm8.msky130_fd_pr__pfet_g5v0d10v5#body = 2.100000e+00
m.xm8.msky130_fd_pr__pfet_g5v0d10v5#dbody = 2.100000e+00
m.xm8.msky130_fd_pr__pfet_g5v0d10v5#sbody = 2.100000e+00
m.xm9.msky130_fd_pr__nfet_g5v0d10v5#body = 2.413715e-11
m.xm9.msky130_fd_pr__nfet_g5v0d10v5#dbody = 4.556129e-11
m.xm9.msky130_fd_pr__nfet_g5v0d10v5#sbody = 2.685016e-11
m.xm10.msky130_fd_pr__nfet_g5v0d10v5#body = 2.411885e-11
m.xm10.msky130_fd_pr__nfet_g5v0d10v5#dbody = 4.551554e-11
m.xm10.msky130_fd_pr__nfet_g5v0d10v5#sbody = 2.684101e-11
m.xm11.msky130_fd_pr__pfet_g5v0d10v5#body = 2.100000e+00
m.xm11.msky130_fd_pr__pfet_g5v0d10v5#dbody = 2.100000e+00
m.xm11.msky130_fd_pr__pfet_g5v0d10v5#sbody = 2.100000e+00
m.xm12.msky130_fd_pr__pfet_g5v0d10v5#body = 2.100000e+00
m.xm12.msky130_fd_pr__pfet_g5v0d10v5#dbody = 2.100000e+00
m.xm12.msky130_fd_pr__pfet_g5v0d10v5#sbody = 2.100000e+00
m.xm13.msky130_fd_pr__nfet_g5v0d10v5#body = 5.743241e-12
m.xm13.msky130_fd_pr__nfet_g5v0d10v5#dbody = 1.435803e-11
m.xm13.msky130_fd_pr__nfet_g5v0d10v5#sbody = 2.871688e-12
m.xm14.msky130_fd_pr__pfet_g5v0d10v5#body = 2.100000e+00
m.xm14.msky130_fd_pr__pfet_g5v0d10v5#dbody = 2.100000e+00
m.xm14.msky130_fd_pr__pfet_g5v0d10v5#sbody = 2.100000e+00
m.xm15.msky130_fd_pr__nfet_g5v0d10v5#body = 2.168389e-15
m.xm15.msky130_fd_pr__nfet_g5v0d10v5#dbody = 5.420840e-15
m.xm15.msky130_fd_pr__nfet_g5v0d10v5#sbody = 1.084328e-15
m.xm16.msky130_fd_pr__nfet_g5v0d10v5#body = 5.113481e-11
m.xm16.msky130_fd_pr__nfet_g5v0d10v5#dbody = 8.862187e-11
m.xm16.msky130_fd_pr__nfet_g5v0d10v5#sbody = 6.478257e-11
m.xm17.msky130_fd_pr__pfet_g5v0d10v5#body = 2.100000e+00
m.xm17.msky130_fd_pr__pfet_g5v0d10v5#dbody = 2.100000e+00
m.xm17.msky130_fd_pr__pfet_g5v0d10v5#sbody = 2.100000e+00
m.xm18.msky130_fd_pr__nfet_g5v0d10v5#body = 8.015984e-12
m.xm18.msky130_fd_pr__nfet_g5v0d10v5#dbody = 2.003989e-11
m.xm18.msky130_fd_pr__nfet_g5v0d10v5#sbody = 4.008063e-12
m.xm19.msky130_fd_pr__nfet_g5v0d10v5#body = 2.600310e-11
m.xm19.msky130_fd_pr__nfet_g5v0d10v5#dbody = 4.747928e-11
m.xm19.msky130_fd_pr__nfet_g5v0d10v5#sbody = 3.053002e-11
m.xm20.msky130_fd_pr__nfet_g5v0d10v5#body = 1.347442e-11
m.xm20.msky130_fd_pr__nfet_g5v0d10v5#dbody = 3.368597e-11
m.xm20.msky130_fd_pr__nfet_g5v0d10v5#sbody = 6.737284e-12
m.xm22.msky130_fd_pr__nfet_g5v0d10v5#body = 1.205909e-11
m.xm22.msky130_fd_pr__nfet_g5v0d10v5#dbody = 3.014761e-11
m.xm22.msky130_fd_pr__nfet_g5v0d10v5#sbody = 6.029653e-12
m.xm24.msky130_fd_pr__pfet_g5v0d10v5#body = 2.100000e+00
m.xm24.msky130_fd_pr__pfet_g5v0d10v5#dbody = 2.100000e+00
m.xm24.msky130_fd_pr__pfet_g5v0d10v5#sbody = 2.100000e+00
m.xm26.msky130_fd_pr__pfet_g5v0d10v5#body = 2.100000e+00
m.xm26.msky130_fd_pr__pfet_g5v0d10v5#dbody = 2.100000e+00
m.xm26.msky130_fd_pr__pfet_g5v0d10v5#sbody = 2.100000e+00
mir = 9.517972e-01
net1 = 6.298155e-01
net2 = 4.185142e-06
net3 = 7.033686e-01
net4 = 2.790558e-01
net5 = 9.569305e-01
net6 = 8.979718e-01
net7 = 7.033134e-01
net8 = 1.047888e+00
net9 = 1.049352e+00
net10 = 3.009407e-01
net11 = 4.827415e-01
net12 = 4.827415e-01
net13 = 0.000000e+00
out = 4.827415e-01
pos = 1.199873e+00
q.xq2.qsky130_fd_pr__pnp_05v5_w0p68l0p68#collcx = 2.964011e-03
q.xq3.qsky130_fd_pr__pnp_05v5_w0p68l0p68#collcx = 3.741014e-04
q.xq4.qsky130_fd_pr__pnp_05v5_w0p68l0p68#collcx = 3.741014e-04
q.xq8.qsky130_fd_pr__pnp_05v5_w0p68l0p68#collcx = 3.741014e-04
q.xq10.qsky130_fd_pr__pnp_05v5_w0p68l0p68#collcx = 3.741014e-04
q.xq12.qsky130_fd_pr__pnp_05v5_w0p68l0p68#collcx = 3.741014e-04
q.xq14.qsky130_fd_pr__pnp_05v5_w0p68l0p68#collcx = 3.741014e-04
q.xq16.qsky130_fd_pr__pnp_05v5_w0p68l0p68#collcx = 3.741014e-04
q.xq18.qsky130_fd_pr__pnp_05v5_w0p68l0p68#collcx = 3.741014e-04
vb = 9.194159e-01
vdd = 2.100000e+00
vs#branch = -1.00416e-01
vt#branch = 0.000000e+00
xc1.a = 0.000000e+00
xc1.b1 = 0.000000e+00
xc3.a = 4.827415e-01
xc3.b1 = 4.827415e-01
xr1.xsky130_fd_pr__res_xhigh_po_0p69.ra = 7.091286e-01
xr2.xsky130_fd_pr__res_xhigh_po_0p69.ra = 7.091838e-01
xr3.xsky130_fd_pr__res_xhigh_po_0p69.ra = 3.468013e-03
xr4.xsky130_fd_pr__res_xhigh_po_0p69.ra = 6.321951e-01
xr5.xsky130_fd_pr__res_xhigh_po_0p69.ra = 3.467724e-03
xr6.xsky130_fd_pr__res_xhigh_po_0p69.ra = 6.157875e-03
xr7.xsky130_fd_pr__res_xhigh_po_0p69.ra = 4.827415e-01
xr8.xsky130_fd_pr__res_xhigh_po_0p69.ra = 1.210108e+00
xr9.xsky130_fd_pr__res_xhigh_po_0p69.ra = 1.073515e-02
Doing analysis at TEMP = 85.000000 and TNOM = 27.000000


No. of Data Rows : 91
 Reference value :  2.08000e+00Note: Starting true gmin stepping
Trying gmin =   1.0000E-03 Note: One successful gmin step
Trying gmin =   1.0000E-04 Note: One successful gmin step
Trying gmin =   1.0000E-05 Note: One successful gmin step
Trying gmin =   1.0000E-06 Note: One successful gmin step
Trying gmin =   1.0000E-07 Note: One successful gmin step
Trying gmin =   1.0000E-08 Note: One successful gmin step
Trying gmin =   1.0000E-09 Note: One successful gmin step
Trying gmin =   3.1623E-10 Note: One successful gmin step
Trying gmin =   5.6234E-11 Note: One successful gmin step
Trying gmin =   5.6234E-12 Note: One successful gmin step
Trying gmin =   1.0000E-12 Note: One successful gmin step
Note: True gmin stepping completed
 Reference value :  9.20000e-01pm                  =  1.008415e+02
Doing analysis at TEMP = 85.000000 and TNOM = 27.000000


No. of Data Rows : 91
psrr100             =  -4.487984e+01
psrr100k            =  -1.690136e+01
Doing analysis at TEMP = 85.000000 and TNOM = 27.000000


No. of Data Rows : 86
temp_coeff = 1.204884e+02
Doing analysis at TEMP = 85.000000 and TNOM = 27.000000


No. of Data Rows : 141
vldo_sup_2          =  1.803526e+00
vldo_sup_2_8        =  1.807475e+00
line_reg = 4.936250e-03
Note: No ".plot", ".print", or ".fourier" lines; no simulations run
vin                 =  1.948154e+00
dropout = 1.841540e-01
