 Reference value :  0.00000e+00
No compatibility mode selected!


Circuit: * ldo netlist 

Doing analysis at TEMP = 27.000000 and TNOM = 27.000000


No. of Data Rows : 1
bg_out = 1.095757e+00
inn = 1.139395e+00
inp = 1.139308e+00
l1#branch = 0.000000e+00
ldo_out = 1.800835e+00
m.xm1.msky130_fd_pr__nfet_g5v0d10v5#body = 1.442528e-11
m.xm1.msky130_fd_pr__nfet_g5v0d10v5#dbody = 3.156405e-11
m.xm1.msky130_fd_pr__nfet_g5v0d10v5#sbody = 1.171180e-11
m.xm2.msky130_fd_pr__pfet_g5v0d10v5#body = 2.100000e+00
m.xm2.msky130_fd_pr__pfet_g5v0d10v5#dbody = 2.100000e+00
m.xm2.msky130_fd_pr__pfet_g5v0d10v5#sbody = 2.100000e+00
m.xm3.msky130_fd_pr__pfet_g5v0d10v5#body = 2.100000e+00
m.xm3.msky130_fd_pr__pfet_g5v0d10v5#dbody = 2.100000e+00
m.xm3.msky130_fd_pr__pfet_g5v0d10v5#sbody = 2.100000e+00
m.xm4.msky130_fd_pr__pfet_g5v0d10v5#body = 2.100000e+00
m.xm4.msky130_fd_pr__pfet_g5v0d10v5#dbody = 2.100000e+00
m.xm4.msky130_fd_pr__pfet_g5v0d10v5#sbody = 2.100000e+00
m.xm5.msky130_fd_pr__pfet_g5v0d10v5#body = 2.100000e+00
m.xm5.msky130_fd_pr__pfet_g5v0d10v5#dbody = 2.100000e+00
m.xm5.msky130_fd_pr__pfet_g5v0d10v5#sbody = 2.100000e+00
m.xm6.msky130_fd_pr__nfet_g5v0d10v5#body = 1.239314e-11
m.xm6.msky130_fd_pr__nfet_g5v0d10v5#dbody = 3.098284e-11
m.xm6.msky130_fd_pr__nfet_g5v0d10v5#sbody = 6.196575e-12
m.xm7.msky130_fd_pr__pfet_g5v0d10v5#body = 2.100000e+00
m.xm7.msky130_fd_pr__pfet_g5v0d10v5#dbody = 2.100000e+00
m.xm7.msky130_fd_pr__pfet_g5v0d10v5#sbody = 2.100000e+00
m.xm8.msky130_fd_pr__pfet_g5v0d10v5#body = 2.100000e+00
m.xm8.msky130_fd_pr__pfet_g5v0d10v5#dbody = 2.100000e+00
m.xm8.msky130_fd_pr__pfet_g5v0d10v5#sbody = 2.100000e+00
m.xm9.msky130_fd_pr__nfet_g5v0d10v5#body = 1.516829e-11
m.xm9.msky130_fd_pr__nfet_g5v0d10v5#dbody = 3.449240e-11
m.xm9.msky130_fd_pr__nfet_g5v0d10v5#sbody = 1.101246e-11
m.xm10.msky130_fd_pr__nfet_g5v0d10v5#body = 1.479561e-11
m.xm10.msky130_fd_pr__nfet_g5v0d10v5#dbody = 3.356070e-11
m.xm10.msky130_fd_pr__nfet_g5v0d10v5#sbody = 1.082612e-11
m.xm11.msky130_fd_pr__pfet_g5v0d10v5#body = 2.100000e+00
m.xm11.msky130_fd_pr__pfet_g5v0d10v5#dbody = 2.100000e+00
m.xm11.msky130_fd_pr__pfet_g5v0d10v5#sbody = 2.100000e+00
m.xm12.msky130_fd_pr__pfet_g5v0d10v5#body = 2.100000e+00
m.xm12.msky130_fd_pr__pfet_g5v0d10v5#dbody = 2.100000e+00
m.xm12.msky130_fd_pr__pfet_g5v0d10v5#sbody = 2.100000e+00
m.xm13.msky130_fd_pr__nfet_g5v0d10v5#body = 1.712811e-12
m.xm13.msky130_fd_pr__nfet_g5v0d10v5#dbody = 4.282018e-12
m.xm13.msky130_fd_pr__nfet_g5v0d10v5#sbody = 8.564143e-13
m.xm14.msky130_fd_pr__pfet_g5v0d10v5#body = 2.100000e+00
m.xm14.msky130_fd_pr__pfet_g5v0d10v5#dbody = 2.100000e+00
m.xm14.msky130_fd_pr__pfet_g5v0d10v5#sbody = 2.100000e+00
m.xm15.msky130_fd_pr__nfet_g5v0d10v5#body = 4.263353e-16
m.xm15.msky130_fd_pr__nfet_g5v0d10v5#dbody = 1.065828e-15
m.xm15.msky130_fd_pr__nfet_g5v0d10v5#sbody = 2.131781e-16
m.xm16.msky130_fd_pr__nfet_g5v0d10v5#body = 4.050120e-11
m.xm16.msky130_fd_pr__nfet_g5v0d10v5#dbody = 7.275935e-11
m.xm16.msky130_fd_pr__nfet_g5v0d10v5#sbody = 4.874424e-11
m.xm17.msky130_fd_pr__pfet_g5v0d10v5#body = 2.100000e+00
m.xm17.msky130_fd_pr__pfet_g5v0d10v5#dbody = 2.100000e+00
m.xm17.msky130_fd_pr__pfet_g5v0d10v5#sbody = 2.100000e+00
m.xm18.msky130_fd_pr__nfet_g5v0d10v5#body = 1.769454e-11
m.xm18.msky130_fd_pr__nfet_g5v0d10v5#dbody = 4.423384e-11
m.xm18.msky130_fd_pr__nfet_g5v0d10v5#sbody = 8.847282e-12
m.xm19.msky130_fd_pr__nfet_g5v0d10v5#body = 1.455367e-11
m.xm19.msky130_fd_pr__nfet_g5v0d10v5#dbody = 3.188502e-11
m.xm19.msky130_fd_pr__nfet_g5v0d10v5#sbody = 1.177599e-11
m.xm20.msky130_fd_pr__nfet_g5v0d10v5#body = 1.302143e-11
m.xm20.msky130_fd_pr__nfet_g5v0d10v5#dbody = 3.255356e-11
m.xm20.msky130_fd_pr__nfet_g5v0d10v5#sbody = 6.510727e-12
m.xm22.msky130_fd_pr__nfet_g5v0d10v5#body = 2.252287e-12
m.xm22.msky130_fd_pr__nfet_g5v0d10v5#dbody = 5.630714e-12
m.xm22.msky130_fd_pr__nfet_g5v0d10v5#sbody = 1.126148e-12
m.xm24.msky130_fd_pr__pfet_g5v0d10v5#body = 2.100000e+00
m.xm24.msky130_fd_pr__pfet_g5v0d10v5#dbody = 2.100000e+00
m.xm24.msky130_fd_pr__pfet_g5v0d10v5#sbody = 2.100000e+00
m.xm26.msky130_fd_pr__pfet_g5v0d10v5#body = 2.100000e+00
m.xm26.msky130_fd_pr__pfet_g5v0d10v5#dbody = 2.100000e+00
m.xm26.msky130_fd_pr__pfet_g5v0d10v5#sbody = 2.100000e+00
mir = 9.737063e-01
net1 = 7.250974e-01
net2 = 3.280094e-05
net3 = 7.846370e-01
net4 = 1.796167e-01
net5 = 9.839772e-01
net6 = 9.908839e-01
net7 = 7.845480e-01
net8 = 1.046274e+00
net9 = 1.076089e+00
net10 = 1.368929e-01
net11 = 1.415330e+00
net12 = 1.415330e+00
net13 = 0.000000e+00
out = 1.415330e+00
pos = 1.096061e+00
q.xq2.qsky130_fd_pr__pnp_05v5_w0p68l0p68#collcx = 2.091056e-03
q.xq3.qsky130_fd_pr__pnp_05v5_w0p68l0p68#collcx = 2.633593e-04
q.xq4.qsky130_fd_pr__pnp_05v5_w0p68l0p68#collcx = 2.633593e-04
q.xq8.qsky130_fd_pr__pnp_05v5_w0p68l0p68#collcx = 2.633593e-04
q.xq10.qsky130_fd_pr__pnp_05v5_w0p68l0p68#collcx = 2.633593e-04
q.xq12.qsky130_fd_pr__pnp_05v5_w0p68l0p68#collcx = 2.633593e-04
q.xq14.qsky130_fd_pr__pnp_05v5_w0p68l0p68#collcx = 2.633593e-04
q.xq16.qsky130_fd_pr__pnp_05v5_w0p68l0p68#collcx = 2.633593e-04
q.xq18.qsky130_fd_pr__pnp_05v5_w0p68l0p68#collcx = 2.633593e-04
vb = 1.041581e+00
vdd = 2.100000e+00
vs#branch = -1.70047e-04
vt#branch = 0.000000e+00
xc1.a = 0.000000e+00
xc1.b1 = 0.000000e+00
xc3.a = 1.415330e+00
xc3.b1 = 1.415330e+00
xr1.xsky130_fd_pr__res_xhigh_po_0p69.ra = 7.922982e-01
xr2.xsky130_fd_pr__res_xhigh_po_0p69.ra = 7.923871e-01
xr3.xsky130_fd_pr__res_xhigh_po_0p69.ra = 5.362874e-03
xr4.xsky130_fd_pr__res_xhigh_po_0p69.ra = 7.276317e-01
xr5.xsky130_fd_pr__res_xhigh_po_0p69.ra = 5.362226e-03
xr6.xsky130_fd_pr__res_xhigh_po_0p69.ra = 8.227704e-03
xr7.xsky130_fd_pr__res_xhigh_po_0p69.ra = 1.415330e+00
xr8.xsky130_fd_pr__res_xhigh_po_0p69.ra = 1.108569e+00
xr9.xsky130_fd_pr__res_xhigh_po_0p69.ra = 1.291263e-02
Doing analysis at TEMP = 27.000000 and TNOM = 27.000000


No. of Data Rows : 91
Note: Starting true gmin stepping
Trying gmin =   1.0000E-03 Note: One successful gmin step
Trying gmin =   1.0000E-04 Note: One successful gmin step
Trying gmin =   1.0000E-05 Note: One successful gmin step
Trying gmin =   1.0000E-06 Note: One successful gmin step
Trying gmin =   1.0000E-07 Warning: Further gmin increment
Trying gmin =   5.6234E-07 Note: One successful gmin step
Trying gmin =   3.1623E-07 Note: One successful gmin step
Trying gmin =   1.3335E-07 Note: One successful gmin step
Trying gmin =   3.6517E-08 Warning: Further gmin increment
Trying gmin =   9.6466E-08 Note: One successful gmin step
Trying gmin =   5.9352E-08 Warning: Further gmin increment
Trying gmin =   8.5436E-08 Note: One successful gmin step
Trying gmin =   7.1210E-08 Warning: Further gmin increment
Trying gmin =   8.1633E-08 Note: One successful gmin step
Trying gmin =   7.6243E-08 Note: One successful gmin step
Trying gmin =   6.8819E-08 Warning: Further gmin increment
Trying gmin =   7.4315E-08 Note: One successful gmin step
Trying gmin =   7.1514E-08 Warning: Further gmin increment
Trying gmin =   7.3605E-08 Note: One successful gmin step
Trying gmin =   7.2552E-08 Warning: Further gmin increment
Trying gmin =   7.3340E-08 Note: One successful gmin step
Trying gmin =   7.2945E-08 Note: One successful gmin step
Trying gmin =   7.2356E-08 Note: One successful gmin step
Trying gmin =   7.1482E-08 Note: One successful gmin step
Trying gmin =   7.0191E-08 Note: One successful gmin step
Trying gmin =   6.8297E-08 Note: One successful gmin step
Trying gmin =   6.5551E-08 Note: One successful gmin step
Trying gmin =   6.1639E-08 Note: One successful gmin step
Trying gmin =   5.6204E-08 Note: One successful gmin step
Trying gmin =   4.8936E-08 Note: One successful gmin step
Trying gmin =   3.9758E-08 Note: One successful gmin step
Trying gmin =   2.9115E-08 Note: One successful gmin step
Trying gmin =   1.8246E-08 Note: One successful gmin step
Trying gmin =   9.0516E-09 Note: One successful gmin step
Trying gmin =   3.1628E-09 Note: One successful gmin step
Trying gmin =   6.5327E-10 Note: One successful gmin step
Trying gmin =   6.5327E-11 Note: One successful gmin step
Trying gmin =   6.5327E-12 Note: One successful gmin step
Trying gmin =   1.0000E-12 Note: One successful gmin step
Note: True gmin stepping completed
 Reference value :  2.80000e+00Note: Starting true gmin stepping
Trying gmin =   1.0000E-03 Note: One successful gmin step
Trying gmin =   1.0000E-04 Note: One successful gmin step
Trying gmin =   1.0000E-05 Note: One successful gmin step
Trying gmin =   1.0000E-06 Note: One successful gmin step
Trying gmin =   1.0000E-07 Note: One successful gmin step
Trying gmin =   1.0000E-08 Note: One successful gmin step
Trying gmin =   3.1623E-09 Note: One successful gmin step
Trying gmin =   5.6234E-10 Note: One successful gmin step
Trying gmin =   5.6234E-11 Note: One successful gmin step
Trying gmin =   5.6234E-12 Note: One successful gmin step
Trying gmin =   1.0000E-12 Note: One successful gmin step
Note: True gmin stepping completed
Note: Starting true gmin stepping
Trying gmin =   1.0000E-03 Note: One successful gmin step
Trying gmin =   1.0000E-04 Note: One successful gmin step
Trying gmin =   1.0000E-05 Note: One successful gmin step
Trying gmin =   1.0000E-06 Note: One successful gmin step
Trying gmin =   1.0000E-07 Note: One successful gmin step
Trying gmin =   1.0000E-08 Note: One successful gmin step
Trying gmin =   3.1623E-09 Note: One successful gmin step
Trying gmin =   5.6234E-10 Note: One successful gmin step
Trying gmin =   5.6234E-11 Note: One successful gmin step
Trying gmin =   5.6234E-12 Warning: Further gmin increment
Trying gmin =   3.1623E-11 Note: One successful gmin step
Trying gmin =   1.3335E-11 Note: One successful gmin step
Trying gmin =   3.6517E-12 Warning: Further gmin increment
Trying gmin =   9.6466E-12 Note: One successful gmin step
Trying gmin =   5.9352E-12 Note: One successful gmin step
Trying gmin =   2.8644E-12 Note: One successful gmin step
Trying gmin =   1.0000E-12 Note: One successful gmin step
Note: True gmin stepping completed
 Reference value :  1.14000e+00Note: Starting true gmin stepping
Trying gmin =   1.0000E-03 Note: One successful gmin step
Trying gmin =   1.0000E-04 Note: One successful gmin step
Trying gmin =   1.0000E-05 Note: One successful gmin step
Trying gmin =   1.0000E-06 Note: One successful gmin step
Trying gmin =   1.0000E-07 Note: One successful gmin step
Trying gmin =   1.0000E-08 Note: One successful gmin step
Trying gmin =   1.0000E-09 Note: One successful gmin step
Trying gmin =   1.0000E-10 Note: One successful gmin step
Trying gmin =   1.0000E-11 Note: One successful gmin step
Trying gmin =   1.0000E-12 Warning: Further gmin increment
Trying gmin =   5.6234E-12 Warning: Further gmin increment
Trying gmin =   8.6596E-12 Warning: Further gmin increment
Trying gmin =   9.6466E-12 Note: One successful gmin step
Trying gmin =   9.4746E-12 Note: One successful gmin step
Trying gmin =   9.2224E-12 Note: One successful gmin step
Trying gmin =   8.8566E-12 Note: One successful gmin step
Trying gmin =   8.3349E-12 Note: One successful gmin step
Trying gmin =   7.6094E-12 Note: One successful gmin step
Trying gmin =   6.6378E-12 Note: One successful gmin step
Trying gmin =   5.4079E-12 Note: One successful gmin step
Trying gmin =   3.9769E-12 Note: One successful gmin step
Trying gmin =   2.5080E-12 Note: One successful gmin step
Trying gmin =   1.2560E-12 Note: One successful gmin step
Trying gmin =   1.0000E-12 Note: One successful gmin step
Note: True gmin stepping completed
 Reference value :  6.20000e-01pm                  =  6.854318e+01
Doing analysis at TEMP = 27.000000 and TNOM = 27.000000


No. of Data Rows : 91
psrr100             =  -7.324731e+01
psrr100k            =  -2.719677e+01
Doing analysis at TEMP = 27.000000 and TNOM = 27.000000


No. of Data Rows : 86
temp_coeff = 4.209678e+01
Doing analysis at TEMP = 27.000000 and TNOM = 27.000000


No. of Data Rows : 141
vldo_sup_2          =  1.800856e+00
vldo_sup_2_8        =  1.800748e+00
line_reg = 1.350000e-04
Note: No ".plot", ".print", or ".fourier" lines; no simulations run
vin                 =  1.764098e+00
dropout = 9.800000e-05
