 Reference value :  0.00000e+00
No compatibility mode selected!


Circuit: * ldo netlist 

Doing analysis at TEMP = 27.000000 and TNOM = 27.000000


No. of Data Rows : 1
bg_out = 1.101652e+00
inn = 1.150241e+00
inp = 1.150160e+00
l1#branch = 0.000000e+00
ldo_out = 1.811396e+00
m.xm1.msky130_fd_pr__nfet_g5v0d10v5#body = 1.498092e-11
m.xm1.msky130_fd_pr__nfet_g5v0d10v5#dbody = 3.251334e-11
m.xm1.msky130_fd_pr__nfet_g5v0d10v5#sbody = 1.242941e-11
m.xm2.msky130_fd_pr__pfet_g5v0d10v5#body = 2.300000e+00
m.xm2.msky130_fd_pr__pfet_g5v0d10v5#dbody = 2.300000e+00
m.xm2.msky130_fd_pr__pfet_g5v0d10v5#sbody = 2.300000e+00
m.xm3.msky130_fd_pr__pfet_g5v0d10v5#body = 2.300000e+00
m.xm3.msky130_fd_pr__pfet_g5v0d10v5#dbody = 2.300000e+00
m.xm3.msky130_fd_pr__pfet_g5v0d10v5#sbody = 2.300000e+00
m.xm4.msky130_fd_pr__pfet_g5v0d10v5#body = 2.300000e+00
m.xm4.msky130_fd_pr__pfet_g5v0d10v5#dbody = 2.300000e+00
m.xm4.msky130_fd_pr__pfet_g5v0d10v5#sbody = 2.300000e+00
m.xm5.msky130_fd_pr__pfet_g5v0d10v5#body = 2.300000e+00
m.xm5.msky130_fd_pr__pfet_g5v0d10v5#dbody = 2.300000e+00
m.xm5.msky130_fd_pr__pfet_g5v0d10v5#sbody = 2.300000e+00
m.xm6.msky130_fd_pr__nfet_g5v0d10v5#body = 1.231819e-11
m.xm6.msky130_fd_pr__nfet_g5v0d10v5#dbody = 3.079547e-11
m.xm6.msky130_fd_pr__nfet_g5v0d10v5#sbody = 6.159102e-12
m.xm7.msky130_fd_pr__pfet_g5v0d10v5#body = 2.300000e+00
m.xm7.msky130_fd_pr__pfet_g5v0d10v5#dbody = 2.300000e+00
m.xm7.msky130_fd_pr__pfet_g5v0d10v5#sbody = 2.300000e+00
m.xm8.msky130_fd_pr__pfet_g5v0d10v5#body = 2.300000e+00
m.xm8.msky130_fd_pr__pfet_g5v0d10v5#dbody = 2.300000e+00
m.xm8.msky130_fd_pr__pfet_g5v0d10v5#sbody = 2.300000e+00
m.xm9.msky130_fd_pr__nfet_g5v0d10v5#body = 1.574883e-11
m.xm9.msky130_fd_pr__nfet_g5v0d10v5#dbody = 3.560643e-11
m.xm9.msky130_fd_pr__nfet_g5v0d10v5#sbody = 1.164007e-11
m.xm10.msky130_fd_pr__nfet_g5v0d10v5#body = 1.541895e-11
m.xm10.msky130_fd_pr__nfet_g5v0d10v5#dbody = 3.478172e-11
m.xm10.msky130_fd_pr__nfet_g5v0d10v5#sbody = 1.147513e-11
m.xm11.msky130_fd_pr__pfet_g5v0d10v5#body = 2.300000e+00
m.xm11.msky130_fd_pr__pfet_g5v0d10v5#dbody = 2.300000e+00
m.xm11.msky130_fd_pr__pfet_g5v0d10v5#sbody = 2.300000e+00
m.xm12.msky130_fd_pr__pfet_g5v0d10v5#body = 2.300000e+00
m.xm12.msky130_fd_pr__pfet_g5v0d10v5#dbody = 2.300000e+00
m.xm12.msky130_fd_pr__pfet_g5v0d10v5#sbody = 2.300000e+00
m.xm13.msky130_fd_pr__nfet_g5v0d10v5#body = 1.881476e-12
m.xm13.msky130_fd_pr__nfet_g5v0d10v5#dbody = 4.703681e-12
m.xm13.msky130_fd_pr__nfet_g5v0d10v5#sbody = 9.407482e-13
m.xm14.msky130_fd_pr__pfet_g5v0d10v5#body = 2.300000e+00
m.xm14.msky130_fd_pr__pfet_g5v0d10v5#dbody = 2.300000e+00
m.xm14.msky130_fd_pr__pfet_g5v0d10v5#sbody = 2.300000e+00
m.xm15.msky130_fd_pr__nfet_g5v0d10v5#body = 4.103912e-16
m.xm15.msky130_fd_pr__nfet_g5v0d10v5#dbody = 1.025965e-15
m.xm15.msky130_fd_pr__nfet_g5v0d10v5#sbody = 2.052084e-16
m.xm16.msky130_fd_pr__nfet_g5v0d10v5#body = 4.313675e-11
m.xm16.msky130_fd_pr__nfet_g5v0d10v5#dbody = 7.907711e-11
m.xm16.msky130_fd_pr__nfet_g5v0d10v5#sbody = 5.033313e-11
m.xm17.msky130_fd_pr__pfet_g5v0d10v5#body = 2.300000e+00
m.xm17.msky130_fd_pr__pfet_g5v0d10v5#dbody = 2.300000e+00
m.xm17.msky130_fd_pr__pfet_g5v0d10v5#sbody = 2.300000e+00
m.xm18.msky130_fd_pr__nfet_g5v0d10v5#body = 1.410738e-11
m.xm18.msky130_fd_pr__nfet_g5v0d10v5#dbody = 3.526844e-11
m.xm18.msky130_fd_pr__nfet_g5v0d10v5#sbody = 7.053705e-12
m.xm19.msky130_fd_pr__nfet_g5v0d10v5#body = 1.510462e-11
m.xm19.msky130_fd_pr__nfet_g5v0d10v5#dbody = 3.282259e-11
m.xm19.msky130_fd_pr__nfet_g5v0d10v5#sbody = 1.249126e-11
m.xm20.msky130_fd_pr__nfet_g5v0d10v5#body = 1.289835e-11
m.xm20.msky130_fd_pr__nfet_g5v0d10v5#dbody = 3.224585e-11
m.xm20.msky130_fd_pr__nfet_g5v0d10v5#sbody = 6.449187e-12
m.xm22.msky130_fd_pr__nfet_g5v0d10v5#body = 2.472187e-12
m.xm22.msky130_fd_pr__nfet_g5v0d10v5#dbody = 6.180462e-12
m.xm22.msky130_fd_pr__nfet_g5v0d10v5#sbody = 1.236098e-12
m.xm24.msky130_fd_pr__pfet_g5v0d10v5#body = 2.300000e+00
m.xm24.msky130_fd_pr__pfet_g5v0d10v5#dbody = 2.300000e+00
m.xm24.msky130_fd_pr__pfet_g5v0d10v5#sbody = 2.300000e+00
m.xm26.msky130_fd_pr__pfet_g5v0d10v5#body = 2.300000e+00
m.xm26.msky130_fd_pr__pfet_g5v0d10v5#dbody = 2.300000e+00
m.xm26.msky130_fd_pr__pfet_g5v0d10v5#sbody = 2.300000e+00
mir = 1.000566e+00
net1 = 7.328865e-01
net2 = 3.157502e-05
net3 = 7.924206e-01
net4 = 1.972090e-01
net5 = 1.010462e+00
net6 = 9.848889e-01
net7 = 7.923384e-01
net8 = 1.082649e+00
net9 = 1.109040e+00
net10 = 1.503864e-01
net11 = 1.128458e+00
net12 = 1.128458e+00
net13 = 0.000000e+00
out = 1.128458e+00
pos = 1.101906e+00
q.xq2.qsky130_fd_pr__pnp_05v5_w0p68l0p68#collcx = 2.119402e-03
q.xq3.qsky130_fd_pr__pnp_05v5_w0p68l0p68#collcx = 2.689312e-04
q.xq4.qsky130_fd_pr__pnp_05v5_w0p68l0p68#collcx = 2.689312e-04
q.xq8.qsky130_fd_pr__pnp_05v5_w0p68l0p68#collcx = 2.689312e-04
q.xq10.qsky130_fd_pr__pnp_05v5_w0p68l0p68#collcx = 2.689312e-04
q.xq12.qsky130_fd_pr__pnp_05v5_w0p68l0p68#collcx = 2.689312e-04
q.xq14.qsky130_fd_pr__pnp_05v5_w0p68l0p68#collcx = 2.689312e-04
q.xq16.qsky130_fd_pr__pnp_05v5_w0p68l0p68#collcx = 2.689312e-04
q.xq18.qsky130_fd_pr__pnp_05v5_w0p68l0p68#collcx = 2.689312e-04
vb = 1.031735e+00
vdd = 2.300000e+00
vs#branch = -1.01946e-02
vt#branch = 0.000000e+00
xc1.a = 0.000000e+00
xc1.b1 = 0.000000e+00
xc3.a = 1.128458e+00
xc3.b1 = 1.128458e+00
xr1.xsky130_fd_pr__res_xhigh_po_0p69.ra = 7.953278e-01
xr2.xsky130_fd_pr__res_xhigh_po_0p69.ra = 7.954099e-01
xr3.xsky130_fd_pr__res_xhigh_po_0p69.ra = 2.078688e-03
xr4.xsky130_fd_pr__res_xhigh_po_0p69.ra = 7.338550e-01
xr5.xsky130_fd_pr__res_xhigh_po_0p69.ra = 2.078458e-03
xr6.xsky130_fd_pr__res_xhigh_po_0p69.ra = 3.174159e-03
xr7.xsky130_fd_pr__res_xhigh_po_0p69.ra = 1.128458e+00
xr8.xsky130_fd_pr__res_xhigh_po_0p69.ra = 1.106727e+00
xr9.xsky130_fd_pr__res_xhigh_po_0p69.ra = 4.976952e-03
Doing analysis at TEMP = 27.000000 and TNOM = 27.000000


No. of Data Rows : 91
Error: no such vector PM
Note: Starting true gmin stepping
Trying gmin =   1.0000E-03 Note: One successful gmin step
Trying gmin =   1.0000E-04 Note: One successful gmin step
Trying gmin =   1.0000E-05 Note: One successful gmin step
Trying gmin =   1.0000E-06 Note: One successful gmin step
Trying gmin =   1.0000E-07 Warning: Further gmin increment
Trying gmin =   5.6234E-07 Note: One successful gmin step
Trying gmin =   2.3714E-07 Note: One successful gmin step
Trying gmin =   6.4938E-08 Warning: Further gmin increment
Trying gmin =   1.7154E-07 Note: One successful gmin step
Trying gmin =   1.0554E-07 Warning: Further gmin increment
Trying gmin =   1.5193E-07 Note: One successful gmin step
Trying gmin =   1.2663E-07 Warning: Further gmin increment
Trying gmin =   1.4517E-07 Note: One successful gmin step
Trying gmin =   1.3558E-07 Note: One successful gmin step
Trying gmin =   1.2238E-07 Warning: Further gmin increment
Trying gmin =   1.3215E-07 Note: One successful gmin step
Trying gmin =   1.2717E-07 Note: One successful gmin step
Trying gmin =   1.2005E-07 Warning: Further gmin increment
Trying gmin =   1.2535E-07 Warning: Further gmin increment
Trying gmin =   1.2672E-07 Warning: Further gmin increment
Trying gmin =   1.2706E-07 Warning: Further gmin increment
Trying gmin =   1.2714E-07 Warning: Further gmin increment
Trying gmin =   1.2717E-07 Note: One successful gmin step
Trying gmin =   1.2715E-07 Warning: Further gmin increment
Trying gmin =   1.2716E-07 Note: One successful gmin step
Trying gmin =   1.2716E-07 Note: One successful gmin step
Trying gmin =   1.2715E-07 Warning: Last gmin step failed
Warning: True gmin stepping failed
Note: Starting dynamic gmin stepping
Trying gmin =   1.0000E-03 Note: One successful gmin step
Trying gmin =   1.0000E-04 Note: One successful gmin step
Trying gmin =   1.0000E-05 Note: One successful gmin step
Trying gmin =   1.0000E-06 Warning: Further gmin increment
Trying gmin =   5.6234E-06 Note: One successful gmin step
Trying gmin =   3.1623E-06 Note: One successful gmin step
Trying gmin =   1.3335E-06 Warning: Further gmin increment
Trying gmin =   2.5483E-06 Note: One successful gmin step
Trying gmin =   1.8434E-06 Note: One successful gmin step
Trying gmin =   1.1342E-06 Warning: Further gmin increment
Trying gmin =   1.6326E-06 Note: One successful gmin step
Trying gmin =   1.3608E-06 Warning: Further gmin increment
Trying gmin =   1.5600E-06 Note: One successful gmin step
Trying gmin =   1.4905E-06 Note: One successful gmin step
Trying gmin =   1.3921E-06 Note: One successful gmin step
Trying gmin =   1.2566E-06 Note: One successful gmin step
Trying gmin =   1.0776E-06 Note: One successful gmin step
Trying gmin =   8.5571E-07 Note: One successful gmin step
Trying gmin =   6.0556E-07 Note: One successful gmin step
Trying gmin =   3.6050E-07 Note: One successful gmin step
Trying gmin =   1.6559E-07 Note: One successful gmin step
Trying gmin =   5.1547E-08 Note: One successful gmin step
Trying gmin =   8.9530E-09 Note: One successful gmin step
Trying gmin =   8.9530E-10 Note: One successful gmin step
Trying gmin =   8.9530E-11 Note: One successful gmin step
Trying gmin =   8.9530E-12 Note: One successful gmin step
Trying gmin =   1.0000E-12 Note: One successful gmin step
Note: Dynamic gmin stepping completed
 Reference value :  2.80000e+00Note: Starting true gmin stepping
Trying gmin =   1.0000E-03 Note: One successful gmin step
Trying gmin =   1.0000E-04 Note: One successful gmin step
Trying gmin =   1.0000E-05 Note: One successful gmin step
Trying gmin =   1.0000E-06 Note: One successful gmin step
Trying gmin =   1.0000E-07 Note: One successful gmin step
Trying gmin =   1.0000E-08 Warning: Further gmin increment
Trying gmin =   5.6234E-08 Note: One successful gmin step
Trying gmin =   2.3714E-08 Note: One successful gmin step
Trying gmin =   6.4938E-09 Note: One successful gmin step
Trying gmin =   9.3057E-10 Warning: Further gmin increment
Trying gmin =   3.9954E-09 Note: One successful gmin step
Trying gmin =   1.9282E-09 Note: One successful gmin step
Trying gmin =   6.4647E-10 Warning: Further gmin increment
Trying gmin =   1.4672E-09 Note: One successful gmin step
Trying gmin =   9.7392E-10 Note: One successful gmin step
Trying gmin =   5.2669E-10 Note: One successful gmin step
Trying gmin =   2.0946E-10 Warning: Further gmin increment
Trying gmin =   4.1826E-10 Note: One successful gmin step
Trying gmin =   2.9599E-10 Note: One successful gmin step
Trying gmin =   1.7621E-10 Note: One successful gmin step
Trying gmin =   8.0936E-11 Note: One successful gmin step
Trying gmin =   2.5195E-11 Note: One successful gmin step
Trying gmin =   4.3761E-12 Note: One successful gmin step
Trying gmin =   1.0000E-12 Note: One successful gmin step
Note: True gmin stepping completed
 Reference value :  1.36000e+00Note: Starting true gmin stepping
Trying gmin =   1.0000E-03 Note: One successful gmin step
Trying gmin =   1.0000E-04 Note: One successful gmin step
Trying gmin =   1.0000E-05 Note: One successful gmin step
Trying gmin =   1.0000E-06 Note: One successful gmin step
Trying gmin =   1.0000E-07 Note: One successful gmin step
Trying gmin =   1.0000E-08 Note: One successful gmin step
Trying gmin =   1.0000E-09 Warning: Further gmin increment
Trying gmin =   5.6234E-09 Note: One successful gmin step
Trying gmin =   2.3714E-09 Note: One successful gmin step
Trying gmin =   6.4938E-10 Warning: Further gmin increment
Trying gmin =   1.7154E-09 Note: One successful gmin step
Trying gmin =   1.0554E-09 Warning: Further gmin increment
Trying gmin =   1.5193E-09 Note: One successful gmin step
Trying gmin =   1.2663E-09 Note: One successful gmin step
Trying gmin =   9.6358E-10 Note: One successful gmin step
Trying gmin =   6.3960E-10 Note: One successful gmin step
Trying gmin =   3.4589E-10 Warning: Further gmin increment
Trying gmin =   5.4849E-10 Note: One successful gmin step
Trying gmin =   4.3557E-10 Note: One successful gmin step
Trying gmin =   3.0824E-10 Warning: Further gmin increment
Trying gmin =   3.9949E-10 Note: One successful gmin step
Trying gmin =   3.5091E-10 Warning: Further gmin increment
Trying gmin =   3.8675E-10 Note: One successful gmin step
Trying gmin =   3.6840E-10 Warning: Further gmin increment
Trying gmin =   3.8208E-10 Note: One successful gmin step
Trying gmin =   3.7518E-10 Note: One successful gmin step
Trying gmin =   3.6505E-10 Note: One successful gmin step
Trying gmin =   3.5038E-10 Note: One successful gmin step
Trying gmin =   3.2947E-10 Note: One successful gmin step
Trying gmin =   3.0041E-10 Note: One successful gmin step
Trying gmin =   2.6157E-10 Note: One successful gmin step
Trying gmin =   2.1251E-10 Note: One successful gmin step
Trying gmin =   1.5562E-10 Note: One successful gmin step
Trying gmin =   9.7526E-11 Note: One successful gmin step
Trying gmin =   4.8382E-11 Note: One successful gmin step
Trying gmin =   1.6905E-11 Note: One successful gmin step
Trying gmin =   3.4918E-12 Note: One successful gmin step
Trying gmin =   1.0000E-12 Note: One successful gmin step
Note: True gmin stepping completed
 Reference value :  1.34000e+00
Error: measure  pm  (AT) : out of interval
 meas ac pm find p when vdb(ldo_out)=0 failed!

Doing analysis at TEMP = 27.000000 and TNOM = 27.000000


No. of Data Rows : 91
psrr100             =  -7.799186e+01
psrr100k            =  -2.557049e+01
Doing analysis at TEMP = 27.000000 and TNOM = 27.000000


No. of Data Rows : 86
temp_coeff = 7.267872e+01
Doing analysis at TEMP = 27.000000 and TNOM = 27.000000


No. of Data Rows : 141
vldo_sup_2          =  1.811239e+00
vldo_sup_2_8        =  1.811400e+00
line_reg = 2.012500e-04
Note: No ".plot", ".print", or ".fourier" lines; no simulations run
vin                 =  1.785405e+00
dropout = 2.140500e-02
