 Reference value :  0.00000e+00
No compatibility mode selected!


Circuit: * ldo netlist 

Doing analysis at TEMP = 27.000000 and TNOM = 27.000000


No. of Data Rows : 1
bg_out = 1.099034e+00
inn = 1.144344e+00
inp = 1.144308e+00
l1#branch = 0.000000e+00
ldo_out = 1.806944e+00
m.xm1.msky130_fd_pr__nfet_g5v0d10v5#body = 1.565806e-11
m.xm1.msky130_fd_pr__nfet_g5v0d10v5#dbody = 3.221895e-11
m.xm1.msky130_fd_pr__nfet_g5v0d10v5#sbody = 1.475524e-11
m.xm2.msky130_fd_pr__pfet_g5v0d10v5#body = 2.300000e+00
m.xm2.msky130_fd_pr__pfet_g5v0d10v5#dbody = 2.300000e+00
m.xm2.msky130_fd_pr__pfet_g5v0d10v5#sbody = 2.300000e+00
m.xm3.msky130_fd_pr__pfet_g5v0d10v5#body = 2.300000e+00
m.xm3.msky130_fd_pr__pfet_g5v0d10v5#dbody = 2.300000e+00
m.xm3.msky130_fd_pr__pfet_g5v0d10v5#sbody = 2.300000e+00
m.xm4.msky130_fd_pr__pfet_g5v0d10v5#body = 2.300000e+00
m.xm4.msky130_fd_pr__pfet_g5v0d10v5#dbody = 2.300000e+00
m.xm4.msky130_fd_pr__pfet_g5v0d10v5#sbody = 2.300000e+00
m.xm5.msky130_fd_pr__pfet_g5v0d10v5#body = 2.300000e+00
m.xm5.msky130_fd_pr__pfet_g5v0d10v5#dbody = 2.300000e+00
m.xm5.msky130_fd_pr__pfet_g5v0d10v5#sbody = 2.300000e+00
m.xm6.msky130_fd_pr__nfet_g5v0d10v5#body = 1.119842e-11
m.xm6.msky130_fd_pr__nfet_g5v0d10v5#dbody = 2.799603e-11
m.xm6.msky130_fd_pr__nfet_g5v0d10v5#sbody = 5.599213e-12
m.xm7.msky130_fd_pr__pfet_g5v0d10v5#body = 2.300000e+00
m.xm7.msky130_fd_pr__pfet_g5v0d10v5#dbody = 2.300000e+00
m.xm7.msky130_fd_pr__pfet_g5v0d10v5#sbody = 2.300000e+00
m.xm8.msky130_fd_pr__pfet_g5v0d10v5#body = 2.300000e+00
m.xm8.msky130_fd_pr__pfet_g5v0d10v5#dbody = 2.300000e+00
m.xm8.msky130_fd_pr__pfet_g5v0d10v5#sbody = 2.300000e+00
m.xm9.msky130_fd_pr__nfet_g5v0d10v5#body = 1.630214e-11
m.xm9.msky130_fd_pr__nfet_g5v0d10v5#dbody = 3.494667e-11
m.xm9.msky130_fd_pr__nfet_g5v0d10v5#sbody = 1.395975e-11
m.xm10.msky130_fd_pr__nfet_g5v0d10v5#body = 1.609898e-11
m.xm10.msky130_fd_pr__nfet_g5v0d10v5#dbody = 3.443878e-11
m.xm10.msky130_fd_pr__nfet_g5v0d10v5#sbody = 1.385817e-11
m.xm11.msky130_fd_pr__pfet_g5v0d10v5#body = 2.300000e+00
m.xm11.msky130_fd_pr__pfet_g5v0d10v5#dbody = 2.300000e+00
m.xm11.msky130_fd_pr__pfet_g5v0d10v5#sbody = 2.300000e+00
m.xm12.msky130_fd_pr__pfet_g5v0d10v5#body = 2.300000e+00
m.xm12.msky130_fd_pr__pfet_g5v0d10v5#dbody = 2.300000e+00
m.xm12.msky130_fd_pr__pfet_g5v0d10v5#sbody = 2.300000e+00
m.xm13.msky130_fd_pr__nfet_g5v0d10v5#body = 2.902981e-12
m.xm13.msky130_fd_pr__nfet_g5v0d10v5#dbody = 7.257441e-12
m.xm13.msky130_fd_pr__nfet_g5v0d10v5#sbody = 1.451502e-12
m.xm14.msky130_fd_pr__pfet_g5v0d10v5#body = 2.300000e+00
m.xm14.msky130_fd_pr__pfet_g5v0d10v5#dbody = 2.300000e+00
m.xm14.msky130_fd_pr__pfet_g5v0d10v5#sbody = 2.300000e+00
m.xm15.msky130_fd_pr__nfet_g5v0d10v5#body = 1.381637e-16
m.xm15.msky130_fd_pr__nfet_g5v0d10v5#dbody = 3.453985e-16
m.xm15.msky130_fd_pr__nfet_g5v0d10v5#sbody = 6.909259e-17
m.xm16.msky130_fd_pr__nfet_g5v0d10v5#body = 4.306293e-11
m.xm16.msky130_fd_pr__nfet_g5v0d10v5#dbody = 7.904010e-11
m.xm16.msky130_fd_pr__nfet_g5v0d10v5#sbody = 5.014870e-11
m.xm17.msky130_fd_pr__pfet_g5v0d10v5#body = 2.300000e+00
m.xm17.msky130_fd_pr__pfet_g5v0d10v5#dbody = 2.300000e+00
m.xm17.msky130_fd_pr__pfet_g5v0d10v5#sbody = 2.300000e+00
m.xm18.msky130_fd_pr__nfet_g5v0d10v5#body = 1.372702e-11
m.xm18.msky130_fd_pr__nfet_g5v0d10v5#dbody = 3.431753e-11
m.xm18.msky130_fd_pr__nfet_g5v0d10v5#sbody = 6.863523e-12
m.xm19.msky130_fd_pr__nfet_g5v0d10v5#body = 1.570994e-11
m.xm19.msky130_fd_pr__nfet_g5v0d10v5#dbody = 3.234864e-11
m.xm19.msky130_fd_pr__nfet_g5v0d10v5#sbody = 1.478117e-11
m.xm20.msky130_fd_pr__nfet_g5v0d10v5#body = 1.111328e-11
m.xm20.msky130_fd_pr__nfet_g5v0d10v5#dbody = 2.778319e-11
m.xm20.msky130_fd_pr__nfet_g5v0d10v5#sbody = 5.556654e-12
m.xm22.msky130_fd_pr__nfet_g5v0d10v5#body = 3.465815e-12
m.xm22.msky130_fd_pr__nfet_g5v0d10v5#dbody = 8.664533e-12
m.xm22.msky130_fd_pr__nfet_g5v0d10v5#sbody = 1.732913e-12
m.xm24.msky130_fd_pr__pfet_g5v0d10v5#body = 2.300000e+00
m.xm24.msky130_fd_pr__pfet_g5v0d10v5#dbody = 2.300000e+00
m.xm24.msky130_fd_pr__pfet_g5v0d10v5#sbody = 2.300000e+00
m.xm26.msky130_fd_pr__pfet_g5v0d10v5#body = 2.300000e+00
m.xm26.msky130_fd_pr__pfet_g5v0d10v5#dbody = 2.300000e+00
m.xm26.msky130_fd_pr__pfet_g5v0d10v5#sbody = 2.300000e+00
mir = 9.752517e-01
net1 = 7.274594e-01
net2 = 1.063152e-05
net3 = 7.873225e-01
net4 = 2.767029e-01
net5 = 9.794016e-01
net6 = 8.953109e-01
net7 = 7.872853e-01
net8 = 1.055335e+00
net9 = 1.071587e+00
net10 = 2.321104e-01
net11 = 1.098033e+00
net12 = 1.098033e+00
net13 = 0.000000e+00
out = 1.098033e+00
pos = 1.099199e+00
q.xq2.qsky130_fd_pr__pnp_05v5_w0p68l0p68#collcx = 2.277213e-03
q.xq3.qsky130_fd_pr__pnp_05v5_w0p68l0p68#collcx = 2.869892e-04
q.xq4.qsky130_fd_pr__pnp_05v5_w0p68l0p68#collcx = 2.869892e-04
q.xq8.qsky130_fd_pr__pnp_05v5_w0p68l0p68#collcx = 2.869892e-04
q.xq10.qsky130_fd_pr__pnp_05v5_w0p68l0p68#collcx = 2.869892e-04
q.xq12.qsky130_fd_pr__pnp_05v5_w0p68l0p68#collcx = 2.869892e-04
q.xq14.qsky130_fd_pr__pnp_05v5_w0p68l0p68#collcx = 2.869892e-04
q.xq16.qsky130_fd_pr__pnp_05v5_w0p68l0p68#collcx = 2.869892e-04
q.xq18.qsky130_fd_pr__pnp_05v5_w0p68l0p68#collcx = 2.869892e-04
vb = 8.889343e-01
vdd = 2.300000e+00
vs#branch = -1.01720e-02
vt#branch = 0.000000e+00
xc1.a = 0.000000e+00
xc1.b1 = 0.000000e+00
xc3.a = 1.098033e+00
xc3.b1 = 1.098033e+00
xr1.xsky130_fd_pr__res_xhigh_po_0p69.ra = 7.902678e-01
xr2.xsky130_fd_pr__res_xhigh_po_0p69.ra = 7.903050e-01
xr3.xsky130_fd_pr__res_xhigh_po_0p69.ra = 2.064434e-03
xr4.xsky130_fd_pr__res_xhigh_po_0p69.ra = 7.284340e-01
xr5.xsky130_fd_pr__res_xhigh_po_0p69.ra = 2.064330e-03
xr6.xsky130_fd_pr__res_xhigh_po_0p69.ra = 3.165958e-03
xr7.xsky130_fd_pr__res_xhigh_po_0p69.ra = 1.098033e+00
xr8.xsky130_fd_pr__res_xhigh_po_0p69.ra = 1.104007e+00
xr9.xsky130_fd_pr__res_xhigh_po_0p69.ra = 4.963658e-03
Doing analysis at TEMP = 27.000000 and TNOM = 27.000000


No. of Data Rows : 91
Error: no such vector PM
Note: Starting true gmin stepping
Trying gmin =   1.0000E-03 Note: One successful gmin step
Trying gmin =   1.0000E-04 Note: One successful gmin step
Trying gmin =   1.0000E-05 Note: One successful gmin step
Trying gmin =   1.0000E-06 Note: One successful gmin step
Trying gmin =   1.0000E-07 Note: One successful gmin step
Trying gmin =   1.0000E-08 Warning: Further gmin increment
Trying gmin =   5.6234E-08 Note: One successful gmin step
Trying gmin =   2.3714E-08 Warning: Further gmin increment
Trying gmin =   4.5316E-08 Note: One successful gmin step
Trying gmin =   3.2781E-08 Warning: Further gmin increment
Trying gmin =   4.1792E-08 Note: One successful gmin step
Trying gmin =   3.7013E-08 Warning: Further gmin increment
Trying gmin =   4.0542E-08 Note: One successful gmin step
Trying gmin =   3.8738E-08 Note: One successful gmin step
Trying gmin =   3.6180E-08 Note: One successful gmin step
Trying gmin =   3.2657E-08 Note: One successful gmin step
Trying gmin =   2.8005E-08 Note: One successful gmin step
Trying gmin =   2.2239E-08 Note: One successful gmin step
Trying gmin =   1.5738E-08 Note: One successful gmin step
Trying gmin =   9.3691E-09 Note: One successful gmin step
Trying gmin =   4.3035E-09 Note: One successful gmin step
Trying gmin =   1.3397E-09 Note: One successful gmin step
Trying gmin =   2.3268E-10 Note: One successful gmin step
Trying gmin =   2.3268E-11 Note: One successful gmin step
Trying gmin =   2.3268E-12 Note: One successful gmin step
Trying gmin =   1.0000E-12 Note: One successful gmin step
Note: True gmin stepping completed
 Reference value :  1.50000e+00Note: Starting true gmin stepping
Trying gmin =   1.0000E-03 Note: One successful gmin step
Trying gmin =   1.0000E-04 Note: One successful gmin step
Trying gmin =   1.0000E-05 Note: One successful gmin step
Trying gmin =   1.0000E-06 Note: One successful gmin step
Trying gmin =   1.0000E-07 Note: One successful gmin step
Trying gmin =   1.0000E-08 Warning: Further gmin increment
Trying gmin =   5.6234E-08 Note: One successful gmin step
Trying gmin =   2.3714E-08 Warning: Further gmin increment
Trying gmin =   4.5316E-08 Note: One successful gmin step
Trying gmin =   3.2781E-08 Warning: Further gmin increment
Trying gmin =   4.1792E-08 Note: One successful gmin step
Trying gmin =   3.7013E-08 Note: One successful gmin step
Trying gmin =   3.0850E-08 Note: One successful gmin step
Trying gmin =   2.3475E-08 Note: One successful gmin step
Trying gmin =   1.5582E-08 Note: One successful gmin step
Trying gmin =   8.4267E-09 Note: One successful gmin step
Trying gmin =   3.3513E-09 Note: One successful gmin step
Trying gmin =   8.4049E-10 Note: One successful gmin step
Trying gmin =   1.0556E-10 Note: One successful gmin step
Trying gmin =   1.0556E-11 Note: One successful gmin step
Trying gmin =   1.0556E-12 Note: One successful gmin step
Trying gmin =   1.0000E-12 Note: One successful gmin step
Note: True gmin stepping completed

Error: measure  pm  (AT) : out of interval
 meas ac pm find p when vdb(ldo_out)=0 failed!

Doing analysis at TEMP = 27.000000 and TNOM = 27.000000


No. of Data Rows : 91
psrr100             =  -7.894020e+01
psrr100k            =  -2.622439e+01
Doing analysis at TEMP = 27.000000 and TNOM = 27.000000


No. of Data Rows : 86
temp_coeff = 6.896405e+01
Doing analysis at TEMP = 27.000000 and TNOM = 27.000000


No. of Data Rows : 141
vldo_sup_2          =  1.806836e+00
vldo_sup_2_8        =  1.806874e+00
line_reg = 4.750000e-05
Note: No ".plot", ".print", or ".fourier" lines; no simulations run
vin                 =  1.786371e+00
dropout = 2.237100e-02
