Note: Starting true gmin stepping
Trying gmin =   1.0000E-03 Note: One successful gmin step
Trying gmin =   1.0000E-04 Note: One successful gmin step
Trying gmin =   1.0000E-05 Note: One successful gmin step
Trying gmin =   1.0000E-06 Note: One successful gmin step
Trying gmin =   1.0000E-07 Note: One successful gmin step
Trying gmin =   1.0000E-08 Warning: Further gmin increment
Trying gmin =   5.6234E-08 Warning: Further gmin increment
Trying gmin =   8.6596E-08 Warning: Further gmin increment
Trying gmin =   9.6466E-08 Warning: Further gmin increment
Trying gmin =   9.9105E-08 Note: One successful gmin step
Trying gmin =   9.7776E-08 Note: One successful gmin step
Trying gmin =   9.5818E-08 Warning: Further gmin increment
Trying gmin =   9.7283E-08 Note: One successful gmin step
Trying gmin =   9.6548E-08 Warning: Further gmin increment
Trying gmin =   9.7099E-08 Warning: Further gmin increment
Trying gmin =   9.7237E-08 Warning: Further gmin increment
Trying gmin =   9.7271E-08 Note: One successful gmin step
Trying gmin =   9.7254E-08 Note: One successful gmin step
Trying gmin =   9.7228E-08 Warning: Further gmin increment
Trying gmin =   9.7248E-08 Warning: Further gmin increment
Trying gmin =   9.7253E-08 Note: One successful gmin step
Trying gmin =   9.7250E-08 Warning: Last gmin step failed
Warning: True gmin stepping failed
Note: Starting dynamic gmin stepping
Trying gmin =   1.0000E-03 Note: One successful gmin step
Trying gmin =   1.0000E-04 Note: One successful gmin step
Trying gmin =   1.0000E-05 Note: One successful gmin step
Trying gmin =   1.0000E-06 Note: One successful gmin step
Trying gmin =   1.0000E-07 Warning: Further gmin increment
Trying gmin =   5.6234E-07 Note: One successful gmin step
Trying gmin =   2.3714E-07 Note: One successful gmin step
Trying gmin =   1.5399E-07 Note: One successful gmin step
Trying gmin =   8.0584E-08 Note: One successful gmin step
Trying gmin =   3.0505E-08 Note: One successful gmin step
Trying gmin =   7.1050E-09 Note: One successful gmin step
Trying gmin =   7.9863E-10 Note: One successful gmin step
Trying gmin =   7.9863E-11 Note: One successful gmin step
Trying gmin =   7.9863E-12 Note: One successful gmin step
Trying gmin =   1.0000E-12 Note: One successful gmin step
Note: Dynamic gmin stepping completed
 Reference value :  0.00000e+00
No compatibility mode selected!


Circuit: * ldo netlist 

Doing analysis at TEMP = 0.000000 and TNOM = 27.000000


No. of Data Rows : 1
bg_out = 2.015228e+00
inn = 2.111510e+00
inp = 1.985908e+00
l1#branch = 0.000000e+00
ldo_out = 2.087553e+00
m.xm1.msky130_fd_pr__nfet_g5v0d10v5#body = 1.601027e-11
m.xm1.msky130_fd_pr__nfet_g5v0d10v5#dbody = 2.422138e-11
m.xm1.msky130_fd_pr__nfet_g5v0d10v5#sbody = 2.380944e-11
m.xm2.msky130_fd_pr__pfet_g5v0d10v5#body = 2.100000e+00
m.xm2.msky130_fd_pr__pfet_g5v0d10v5#dbody = 2.100000e+00
m.xm2.msky130_fd_pr__pfet_g5v0d10v5#sbody = 2.100000e+00
m.xm3.msky130_fd_pr__pfet_g5v0d10v5#body = 2.100000e+00
m.xm3.msky130_fd_pr__pfet_g5v0d10v5#dbody = 2.100000e+00
m.xm3.msky130_fd_pr__pfet_g5v0d10v5#sbody = 2.100000e+00
m.xm4.msky130_fd_pr__pfet_g5v0d10v5#body = 2.100000e+00
m.xm4.msky130_fd_pr__pfet_g5v0d10v5#dbody = 2.100000e+00
m.xm4.msky130_fd_pr__pfet_g5v0d10v5#sbody = 2.100000e+00
m.xm5.msky130_fd_pr__pfet_g5v0d10v5#body = 2.100000e+00
m.xm5.msky130_fd_pr__pfet_g5v0d10v5#dbody = 2.100000e+00
m.xm5.msky130_fd_pr__pfet_g5v0d10v5#sbody = 2.100000e+00
m.xm6.msky130_fd_pr__nfet_g5v0d10v5#body = 1.371191e-11
m.xm6.msky130_fd_pr__nfet_g5v0d10v5#dbody = 3.427974e-11
m.xm6.msky130_fd_pr__nfet_g5v0d10v5#sbody = 6.855975e-12
m.xm7.msky130_fd_pr__pfet_g5v0d10v5#body = 2.100000e+00
m.xm7.msky130_fd_pr__pfet_g5v0d10v5#dbody = 2.100000e+00
m.xm7.msky130_fd_pr__pfet_g5v0d10v5#sbody = 2.100000e+00
m.xm8.msky130_fd_pr__pfet_g5v0d10v5#body = 2.100000e+00
m.xm8.msky130_fd_pr__pfet_g5v0d10v5#dbody = 2.100000e+00
m.xm8.msky130_fd_pr__pfet_g5v0d10v5#sbody = 2.100000e+00
m.xm9.msky130_fd_pr__nfet_g5v0d10v5#body = 1.578487e-11
m.xm9.msky130_fd_pr__nfet_g5v0d10v5#dbody = 2.440369e-11
m.xm9.msky130_fd_pr__nfet_g5v0d10v5#sbody = 2.295093e-11
m.xm10.msky130_fd_pr__nfet_g5v0d10v5#body = 3.377736e-11
m.xm10.msky130_fd_pr__nfet_g5v0d10v5#dbody = 6.938445e-11
m.xm10.msky130_fd_pr__nfet_g5v0d10v5#sbody = 3.194715e-11
m.xm11.msky130_fd_pr__pfet_g5v0d10v5#body = 2.100000e+00
m.xm11.msky130_fd_pr__pfet_g5v0d10v5#dbody = 2.100000e+00
m.xm11.msky130_fd_pr__pfet_g5v0d10v5#sbody = 2.100000e+00
m.xm12.msky130_fd_pr__pfet_g5v0d10v5#body = 2.100000e+00
m.xm12.msky130_fd_pr__pfet_g5v0d10v5#dbody = 2.100000e+00
m.xm12.msky130_fd_pr__pfet_g5v0d10v5#sbody = 2.100000e+00
m.xm13.msky130_fd_pr__nfet_g5v0d10v5#body = 7.529222e-12
m.xm13.msky130_fd_pr__nfet_g5v0d10v5#dbody = 1.882300e-11
m.xm13.msky130_fd_pr__nfet_g5v0d10v5#sbody = 3.764660e-12
m.xm14.msky130_fd_pr__pfet_g5v0d10v5#body = 2.100000e+00
m.xm14.msky130_fd_pr__pfet_g5v0d10v5#dbody = 2.100000e+00
m.xm14.msky130_fd_pr__pfet_g5v0d10v5#sbody = 2.100000e+00
m.xm15.msky130_fd_pr__nfet_g5v0d10v5#body = 1.611791e-21
m.xm15.msky130_fd_pr__nfet_g5v0d10v5#dbody = 4.029096e-21
m.xm15.msky130_fd_pr__nfet_g5v0d10v5#sbody = 8.062762e-22
m.xm16.msky130_fd_pr__nfet_g5v0d10v5#body = 5.264399e-11
m.xm16.msky130_fd_pr__nfet_g5v0d10v5#dbody = 7.882211e-11
m.xm16.msky130_fd_pr__nfet_g5v0d10v5#sbody = 7.910986e-11
m.xm17.msky130_fd_pr__pfet_g5v0d10v5#body = 2.100000e+00
m.xm17.msky130_fd_pr__pfet_g5v0d10v5#dbody = 2.100000e+00
m.xm17.msky130_fd_pr__pfet_g5v0d10v5#sbody = 2.100000e+00
m.xm18.msky130_fd_pr__nfet_g5v0d10v5#body = 5.667757e-19
m.xm18.msky130_fd_pr__nfet_g5v0d10v5#dbody = 1.416924e-18
m.xm18.msky130_fd_pr__nfet_g5v0d10v5#sbody = 2.834031e-19
m.xm19.msky130_fd_pr__nfet_g5v0d10v5#body = 1.609179e-11
m.xm19.msky130_fd_pr__nfet_g5v0d10v5#dbody = 2.442518e-11
m.xm19.msky130_fd_pr__nfet_g5v0d10v5#sbody = 2.385020e-11
m.xm20.msky130_fd_pr__nfet_g5v0d10v5#body = 1.382162e-11
m.xm20.msky130_fd_pr__nfet_g5v0d10v5#dbody = 3.455397e-11
m.xm20.msky130_fd_pr__nfet_g5v0d10v5#sbody = 6.910860e-12
m.xm22.msky130_fd_pr__nfet_g5v0d10v5#body = 7.902187e-12
m.xm22.msky130_fd_pr__nfet_g5v0d10v5#dbody = 1.975544e-11
m.xm22.msky130_fd_pr__nfet_g5v0d10v5#sbody = 3.951114e-12
m.xm24.msky130_fd_pr__pfet_g5v0d10v5#body = 2.100000e+00
m.xm24.msky130_fd_pr__pfet_g5v0d10v5#dbody = 2.100000e+00
m.xm24.msky130_fd_pr__pfet_g5v0d10v5#sbody = 2.100000e+00
m.xm26.msky130_fd_pr__pfet_g5v0d10v5#body = 2.100000e+00
m.xm26.msky130Note: Starting true gmin stepping
Trying gmin =   1.0000E-03 Note: One successful gmin step
Trying gmin =   1.0000E-04 Note: One successful gmin step
Trying gmin =   1.0000E-05 Note: One successful gmin step
Trying gmin =   1.0000E-06 Note: One successful gmin step
Trying gmin =   1.0000E-07 Note: One successful gmin step
Trying gmin =   1.0000E-08 Warning: Further gmin increment
Trying gmin =   5.6234E-08 Warning: Further gmin increment
Trying gmin =   8.6596E-08 Warning: Further gmin increment
Trying gmin =   9.6466E-08 Warning: Further gmin increment
Trying gmin =   9.9105E-08 Note: One successful gmin step
Trying gmin =   9.7776E-08 Note: One successful gmin step
Trying gmin =   9.5818E-08 Warning: Further gmin increment
Trying gmin =   9.7283E-08 Note: One successful gmin step
Trying gmin =   9.6548E-08 Warning: Further gmin increment
Trying gmin =   9.7099E-08 Warning: Further gmin increment
Trying gmin =   9.7237E-08 Warning: Further gmin increment
Trying gmin =   9.7271E-08 Note: One successful gmin step
Trying gmin =   9.7254E-08 Note: One successful gmin step
Trying gmin =   9.7228E-08 Warning: Further gmin increment
Trying gmin =   9.7248E-08 Warning: Further gmin increment
Trying gmin =   9.7253E-08 Note: One successful gmin step
Trying gmin =   9.7250E-08 Warning: Last gmin step failed
Warning: True gmin stepping failed
Note: Starting dynamic gmin stepping
Trying gmin =   1.0000E-03 Note: One successful gmin step
Trying gmin =   1.0000E-04 Note: One successful gmin step
Trying gmin =   1.0000E-05 Note: One successful gmin step
Trying gmin =   1.0000E-06 Note: One successful gmin step
Trying gmin =   1.0000E-07 Warning: Further gmin increment
Trying gmin =   5.6234E-07 Note: One successful gmin step
Trying gmin =   2.3714E-07 Note: One successful gmin step
Trying gmin =   1.5399E-07 Note: One successful gmin step
Trying gmin =   8.0584E-08 Note: One successful gmin step
Trying gmin =   3.0505E-08 Note: One successful gmin step
Trying gmin =   7.1050E-09 Note: One successful gmin step
Trying gmin =   7.9863E-10 Note: One successful gmin step
Trying gmin =   7.9863E-11 Note: One successful gmin step
Trying gmin =   7.9863E-12 Note: One successful gmin step
Trying gmin =   1.0000E-12 Note: One successful gmin step
Note: Dynamic gmin stepping completed
 Reference value :  1.00000e+00_fd_pr__pfet_g5v0d10v5#dbody = 2.100000e+00
m.xm26.msky130_fd_pr__pfet_g5v0d10v5#sbody = 2.100000e+00
mir = 6.486452e-01
net1 = 8.006116e-01
net2 = 1.288668e-10
net3 = -1.17037e+07
net4 = 6.321671e-01
net5 = 6.551669e-01
net6 = 1.096945e+00
net7 = 1.030240e+00
net8 = 2.099828e+00
net9 = 6.604478e-01
net10 = 6.023357e-01
net11 = 4.533892e-08
net12 = 4.533892e-08
net13 = 0.000000e+00
out = 4.533892e-08
pos = 1.388573e+00
q.xq2.qsky130_fd_pr__pnp_05v5_w0p68l0p68#collcx = -1.93269e-11
q.xq3.qsky130_fd_pr__pnp_05v5_w0p68l0p68#collcx = 9.866330e-04
q.xq4.qsky130_fd_pr__pnp_05v5_w0p68l0p68#collcx = 9.866330e-04
q.xq8.qsky130_fd_pr__pnp_05v5_w0p68l0p68#collcx = 9.866330e-04
q.xq10.qsky130_fd_pr__pnp_05v5_w0p68l0p68#collcx = 9.866330e-04
q.xq12.qsky130_fd_pr__pnp_05v5_w0p68l0p68#collcx = 9.866330e-04
q.xq14.qsky130_fd_pr__pnp_05v5_w0p68l0p68#collcx = 9.866330e-04
q.xq16.qsky130_fd_pr__pnp_05v5_w0p68l0p68#collcx = 9.866330e-04
q.xq18.qsky130_fd_pr__pnp_05v5_w0p68l0p68#collcx = 9.866330e-04
vb = 1.105727e+00
vdd = 2.100000e+00
vs#branch = -1.18624e-02
vt#branch = 0.000000e+00
xc1.a = 0.000000e+00
xc1.b1 = 0.000000e+00
xc3.a = 4.533892e-08
xc3.b1 = 4.533892e-08
xr1.xsky130_fd_pr__res_xhigh_po_0p69.ra = 1.046730e+00
xr2.xsky130_fd_pr__res_xhigh_po_0p69.ra = -1.17037e+07
xr3.xsky130_fd_pr__res_xhigh_po_0p69.ra = 6.029782e-03
xr4.xsky130_fd_pr__res_xhigh_po_0p69.ra = 8.100575e-01
xr5.xsky130_fd_pr__res_xhigh_po_0p69.ra = 6.572227e-03
xr6.xsky130_fd_pr__res_xhigh_po_0p69.ra = 1.365650e-02
xr7.xsky130_fd_pr__res_xhigh_po_0p69.ra = 4.533892e-08
xr8.xsky130_fd_pr__res_xhigh_po_0p69.ra = 1.403619e+00
xr9.xsky130_fd_pr__res_xhigh_po_0p69.ra = 1.587046e-02
Doing analysis at TEMP = 0.000000 and TNOM = 27.000000


No. of Data Rows : 91
Error: no such vector PM
Note: Starting true gmin stepping
Trying gmin =   1.0000E-03 Note: One successful gmin step
Trying gmin =   1.0000E-04 Note: One successful gmin step
Trying gmin =   1.0000E-05 Note: One successful gmin step
Trying gmin =   1.0000E-06 Note: One successful gmin step
Trying gmin =   1.0000E-07 Note: One successful gmin step
Trying gmin =   1.0000E-08 Warning: Further gmin increment
Trying gmin =   5.6234E-08 Warning: Further gmin increment
Trying gmin =   8.6596E-08 Warning: Further gmin increment
Trying gmin =   9.6466E-08 Warning: Further gmin increment
Trying gmin =   9.9105E-08 Note: One successful gmin step
Trying gmin =   9.7776E-08 Note: One successful gmin step
Trying gmin =   9.5818E-08 Warning: Further gmin increment
Trying gmin =   9.7283E-08 Note: One successful gmin step
Trying gmin =   9.6548E-08 Warning: Further gmin increment
Trying gmin =   9.7099E-08 Warning: Further gmin increment
Trying gmin =   9.7237E-08 Warning: Further gmin increment
Trying gmin =   9.7271E-08 Note: One successful gmin step
Trying gmin =   9.7254E-08 Note: One successful gmin step
Trying gmin =   9.7228E-08 Warning: Further gmin increment
Trying gmin =   9.7248E-08 Warning: Further gmin increment
Trying gmin =   9.7253E-08 Note: One successful gmin step
Trying gmin =   9.7250E-08 Warning: Last gmin step failed
Warning: True gmin stepping failed
Note: Starting dynamic gmin stepping
Trying gmin =   1.0000E-03 Note: One successful gmin step
Trying gmin =   1.0000E-04 Note: One successful gmin step
Trying gmin =   1.0000E-05 Note: One successful gmin step
Trying gmin =   1.0000E-06 Note: One successful gmin step
Trying gmin =   1.0000E-07 Warning: Further gmin increment
Trying gmin =   5.6234E-07 Note: One successful gmin step
Trying gmin =   2.3714E-07 Note: One successful gmin step
Trying gmin =   1.5399E-07 Note: One successful gmin step
Trying gmin =   8.0584E-08 Note: One successful gmin step
Trying gmin =   3.0505E-08 Note: One successful gmin step
Trying gmin =   7.1050E-09 Note: One successful gmin step
Trying gmin =   7.9863E-10 Note: One successful gmin step
Trying gmin =   7.9863E-11 Note: One successful gmin step
Trying gmin =   7.9863E-12 Note: One successful gmin step
Trying gmin =   1.0000E-12 Note: One successful gmin step
Note: Dynamic gmin stepping completed
 Reference value :  1.00000e+00Note: Starting true gmin stepping
Trying gmin =   1.0000E-03 Note: One successful gmin step
Trying gmin =   1.0000E-04 Note: One successful gmin step
Trying gmin =   1.0000E-05 Note: One successful gmin step
Trying gmin =   1.0000E-06 Note: One successful gmin step
Trying gmin =   1.0000E-07 Note: One successful gmin step
Trying gmin =   1.0000E-08 Warning: Further gmin increment
Trying gmin =   5.6234E-08 Note: One successful gmin step
Trying gmin =   2.3714E-08 Warning: Further gmin increment
Trying gmin =   4.5316E-08 Note: One successful gmin step
Trying gmin =   3.2781E-08 Warning: Further gmin increment
Trying gmin =   4.1792E-08 Note: One successful gmin step
Trying gmin =   3.7013E-08 Note: One successful gmin step
Trying gmin =   3.0850E-08 Warning: Further gmin increment
Trying gmin =   3.5366E-08 Note: One successful gmin step
Trying gmin =   3.3031E-08 Warning: Further gmin increment
Trying gmin =   3.4767E-08 Note: One successful gmin step
Trying gmin =   3.3888E-08 Warning: Further gmin increment
Trying gmin =   3.4545E-08 Note: One successful gmin step
Trying gmin =   3.4215E-08 Warning: Further gmin increment
Trying gmin =   3.4462E-08 Warning: Further gmin increment
Trying gmin =   3.4524E-08 Note: One successful gmin step
Trying gmin =   3.4493E-08 Note: One successful gmin step
Trying gmin =   3.4447E-08 Warning: Further gmin increment
Trying gmin =   3.4482E-08 Note: One successful gmin step
Trying gmin =   3.4464E-08 Warning: Further gmin increment
Trying gmin =   3.4477E-08 Warning: Further gmin increment
Trying gmin =   3.4481E-08 Note: One successful gmin step
Trying gmin =   3.4479E-08 Warning: Last gmin step failed
Warning: True gmin stepping failed
Note: Starting dynamic gmin stepping
Trying gmin =   1.0000E-03 Note: One successful gmin step
Trying gmin =   1.0000E-04 Note: One successful gmin step
Trying gmin =   1.0000E-05 Warning: Further gmin increment
Trying gmin =   5.6234E-05 Note: One successful gmin step
Trying gmin =   2.3714E-05 Note: One successful gmin step
Trying gmin =   6.4938E-06 Warning: Further gmin increment
Trying gmin =   1.7154E-05 Note: One successful gmin step
Trying gmin =   1.0554E-05 Warning: Further gmin increment
Trying gmin =   1.5193E-05 Note: One successful gmin step
Trying gmin =   1.2663E-05 Warning: Further gmin increment
Trying gmin =   1.4517E-05 Note: One successful gmin step
Trying gmin =   1.3558E-05 Note: One successful gmin step
Trying gmin =   1.2238E-05 Warning: Further gmin increment
Trying gmin =   1.3215E-05 Note: One successful gmin step
Trying gmin =   1.2717E-05 Note: One successful gmin step
Trying gmin =   1.2005E-05 Note: One successful gmin step
Trying gmin =   1.1011E-05 Note: One successful gmin step
Trying gmin =   9.6718E-06 Note: One successful gmin step
Trying gmin =   7.9623E-06 Note: One successful gmin step
Trying gmin =   5.9475E-06 Note: One successful gmin step
Trying gmin =   3.8395E-06 Note: One successful gmin step
Trying gmin =   2.4787E-06 Note: One successful gmin step
Trying gmin =   1.2857E-06 Warning: Further gmin increment
Trying gmin =   2.1035E-06 Note: One successful gmin step
Trying gmin =   1.6445E-06 Note: One successful gmin step
Trying gmin =   1.1368E-06 Warning: Further gmin increment
Trying gmin =   1.4995E-06 Note: One successful gmin step
Trying gmin =   1.3056E-06 Warning: Further gmin increment
Trying gmin =   1.4485E-06 Note: One successful gmin step
Trying gmin =   1.3752E-06 Warning: Further gmin increment
Trying gmin =   1.4298E-06 Note: One successful gmin step
Trying gmin =   1.4022E-06 Note: One successful gmin step
Trying gmin =   1.3619E-06 Note: One successful gmin step
Trying gmin =   1.3035E-06 Note: One successful gmin step
Trying gmin =   1.2206E-06 Note: One successful gmin step
Trying gmin =   1.1060E-06 Note: One successful gmin step
Trying gmin =   9.5398E-07 Note: One successful gmin step
Trying gmin =   7.6421E-07 Note: One successful gmin step
Trying gmin =   5.4793E-07 Note: One successful gmin step
Trying gmin =   3.3265E-07 Note: One successful gmin step
Trying gmin =   1.5736E-07 Note: One successful gmin step
Trying gmin =   5.1197E-08 Note: One successful gmin step
Trying gmin =   9.5011E-09 Note: One successful gmin step
Trying gmin =   9.5011E-10 Note: One successful gmin step
Trying gmin =   9.5011E-11 Note: One successful gmin step
Trying gmin =   9.5011E-12 Note: One successful gmin step
Trying gmin =   1.0000E-12 Note: One successful gmin step
Note: Dynamic gmin stepping completed
 Reference value :  2.80000e+00Note: Starting true gmin stepping
Trying gmin =   1.0000E-03 Note: One successful gmin step
Trying gmin =   1.0000E-04 Note: One successful gmin step
Trying gmin =   1.0000E-05 Note: One successful gmin step
Trying gmin =   1.0000E-06 Note: One successful gmin step
Trying gmin =   1.0000E-07 Note: One successful gmin step
Trying gmin =   1.0000E-08 Note: One successful gmin step
Trying gmin =   3.1623E-09 Note: One successful gmin step
Trying gmin =   5.6234E-10 Note: One successful gmin step
Trying gmin =   5.6234E-11 Note: One successful gmin step
Trying gmin =   5.6234E-12 Note: One successful gmin step
Trying gmin =   1.0000E-12 Note: One successful gmin step
Note: True gmin stepping completed
Note: Starting true gmin stepping
Trying gmin =   1.0000E-03 Note: One successful gmin step
Trying gmin =   1.0000E-04 Note: One successful gmin step
Trying gmin =   1.0000E-05 Note: One successful gmin step
Trying gmin =   1.0000E-06 Note: One successful gmin step
Trying gmin =   1.0000E-07 Note: One successful gmin step
Trying gmin =   1.0000E-08 Note: One successful gmin step
Trying gmin =   1.0000E-09 Warning: Further gmin increment
Trying gmin =   5.6234E-09 Warning: Further gmin increment
Trying gmin =   8.6596E-09 Note: One successful gmin step
Trying gmin =   6.9783E-09 Note: One successful gmin step
Trying gmin =   5.0481E-09 Note: One successful gmin step
Trying gmin =   3.1059E-09 Note: One successful gmin step
Trying gmin =   1.4989E-09 Warning: Further gmin increment
Trying gmin =   2.5887E-09 Note: One successful gmin step
Trying gmin =   1.9699E-09 Note: One successful gmin step
Trying gmin =   1.3075E-09 Note: One successful gmin step
Trying gmin =   7.0711E-10 Note: One successful gmin step
Trying gmin =   2.8121E-10 Note: One successful gmin step
Trying gmin =   7.0527E-11 Note: One successful gmin step
Trying gmin =   8.8581E-12 Note: One successful gmin step
Trying gmin =   1.0000E-12 Note: One successful gmin step
Note: True gmin stepping completed
 Reference value :  1.30000e+00Note: Starting true gmin stepping
Trying gmin =   1.0000E-03 Note: One successful gmin step
Trying gmin =   1.0000E-04 Note: One successful gmin step
Trying gmin =   1.0000E-05 Note: One successful gmin step
Trying gmin =   1.0000E-06 Note: One successful gmin step
Trying gmin =   1.0000E-07 Note: One successful gmin step
Trying gmin =   1.0000E-08 Note: One successful gmin step
Trying gmin =   3.1623E-09 Warning: Further gmin increment
Trying gmin =   7.4989E-09 Note: One successful gmin step
Trying gmin =   4.8697E-09 Note: One successful gmin step
Trying gmin =   3.1623E-09 Note: One successful gmin step
Trying gmin =   1.6548E-09 Warning: Further gmin increment
Trying gmin =   2.6896E-09 Note: One successful gmin step
Trying gmin =   2.1097E-09 Note: One successful gmin step
Trying gmin =   1.4656E-09 Note: One successful gmin step
Trying gmin =   8.4862E-10 Note: One successful gmin step
Trying gmin =   3.7390E-10 Note: One successful gmin step
Trying gmin =   1.0935E-10 Note: One successful gmin step
Trying gmin =   1.7295E-11 Note: One successful gmin step
Trying gmin =   1.7295E-12 Note: One successful gmin step
Trying gmin =   1.0000E-12 Note: One successful gmin step
Note: True gmin stepping completed
 Reference value :  7.20000e-01
Error: measure  pm  (AT) : out of interval
 meas ac pm find ph when vdb(out)=0 failed!

Doing analysis at TEMP = 0.000000 and TNOM = 27.000000


No. of Data Rows : 91
psrr100             =  2.133558e-02
psrr100k            =  2.129097e-02
Doing analysis at TEMP = 0.000000 and TNOM = 27.000000


No. of Data Rows : 86
temp_coeff = 6.545592e+01
Doing analysis at TEMP = 0.000000 and TNOM = 27.000000


No. of Data Rows : 141
vldo_sup_2          =  1.786115e+00
vldo_sup_2_8        =  1.785113e+00
line_reg = 1.252500e-03
Note: No ".plot", ".print", or ".fourier" lines; no simulations run
vin                 =  1.777716e+00
dropout = 1.371600e-02
