 Reference value :  0.00000e+00
No compatibility mode selected!


Circuit: * ldo netlist 

Doing analysis at TEMP = 85.000000 and TNOM = 27.000000


No. of Data Rows : 1
bg_out = 1.197753e+00
inn = 1.143324e+00
inp = 1.143314e+00
l1#branch = 0.000000e+00
ldo_out = 1.801694e+00
m.xm1.msky130_fd_pr__nfet_g5v0d10v5#body = 3.038236e-11
m.xm1.msky130_fd_pr__nfet_g5v0d10v5#dbody = 5.718257e-11
m.xm1.msky130_fd_pr__nfet_g5v0d10v5#sbody = 3.396450e-11
m.xm2.msky130_fd_pr__pfet_g5v0d10v5#body = 2.500000e+00
m.xm2.msky130_fd_pr__pfet_g5v0d10v5#dbody = 2.500000e+00
m.xm2.msky130_fd_pr__pfet_g5v0d10v5#sbody = 2.500000e+00
m.xm3.msky130_fd_pr__pfet_g5v0d10v5#body = 2.500000e+00
m.xm3.msky130_fd_pr__pfet_g5v0d10v5#dbody = 2.500000e+00
m.xm3.msky130_fd_pr__pfet_g5v0d10v5#sbody = 2.500000e+00
m.xm4.msky130_fd_pr__pfet_g5v0d10v5#body = 2.500000e+00
m.xm4.msky130_fd_pr__pfet_g5v0d10v5#dbody = 2.500000e+00
m.xm4.msky130_fd_pr__pfet_g5v0d10v5#sbody = 2.500000e+00
m.xm5.msky130_fd_pr__pfet_g5v0d10v5#body = 2.500000e+00
m.xm5.msky130_fd_pr__pfet_g5v0d10v5#dbody = 2.500000e+00
m.xm5.msky130_fd_pr__pfet_g5v0d10v5#sbody = 2.500000e+00
m.xm6.msky130_fd_pr__nfet_g5v0d10v5#body = 1.904356e-11
m.xm6.msky130_fd_pr__nfet_g5v0d10v5#dbody = 4.760879e-11
m.xm6.msky130_fd_pr__nfet_g5v0d10v5#sbody = 9.521887e-12
m.xm7.msky130_fd_pr__pfet_g5v0d10v5#body = 2.500000e+00
m.xm7.msky130_fd_pr__pfet_g5v0d10v5#dbody = 2.500000e+00
m.xm7.msky130_fd_pr__pfet_g5v0d10v5#sbody = 2.500000e+00
m.xm8.msky130_fd_pr__pfet_g5v0d10v5#body = 2.500000e+00
m.xm8.msky130_fd_pr__pfet_g5v0d10v5#dbody = 2.500000e+00
m.xm8.msky130_fd_pr__pfet_g5v0d10v5#sbody = 2.500000e+00
m.xm9.msky130_fd_pr__nfet_g5v0d10v5#body = 2.860082e-11
m.xm9.msky130_fd_pr__nfet_g5v0d10v5#dbody = 5.537451e-11
m.xm9.msky130_fd_pr__nfet_g5v0d10v5#sbody = 3.042795e-11
m.xm10.msky130_fd_pr__nfet_g5v0d10v5#body = 2.836262e-11
m.xm10.msky130_fd_pr__nfet_g5v0d10v5#dbody = 5.477901e-11
m.xm10.msky130_fd_pr__nfet_g5v0d10v5#sbody = 3.030885e-11
m.xm11.msky130_fd_pr__pfet_g5v0d10v5#body = 2.500000e+00
m.xm11.msky130_fd_pr__pfet_g5v0d10v5#dbody = 2.500000e+00
m.xm11.msky130_fd_pr__pfet_g5v0d10v5#sbody = 2.500000e+00
m.xm12.msky130_fd_pr__pfet_g5v0d10v5#body = 2.500000e+00
m.xm12.msky130_fd_pr__pfet_g5v0d10v5#dbody = 2.500000e+00
m.xm12.msky130_fd_pr__pfet_g5v0d10v5#sbody = 2.500000e+00
m.xm13.msky130_fd_pr__nfet_g5v0d10v5#body = 6.416058e-12
m.xm13.msky130_fd_pr__nfet_g5v0d10v5#dbody = 1.604008e-11
m.xm13.msky130_fd_pr__nfet_g5v0d10v5#sbody = 3.208095e-12
m.xm14.msky130_fd_pr__pfet_g5v0d10v5#body = 2.500000e+00
m.xm14.msky130_fd_pr__pfet_g5v0d10v5#dbody = 2.500000e+00
m.xm14.msky130_fd_pr__pfet_g5v0d10v5#sbody = 2.500000e+00
m.xm15.msky130_fd_pr__nfet_g5v0d10v5#body = 1.436909e-14
m.xm15.msky130_fd_pr__nfet_g5v0d10v5#dbody = 3.592151e-14
m.xm15.msky130_fd_pr__nfet_g5v0d10v5#sbody = 7.185763e-15
m.xm16.msky130_fd_pr__nfet_g5v0d10v5#body = 5.602192e-11
m.xm16.msky130_fd_pr__nfet_g5v0d10v5#dbody = 1.009913e-10
m.xm16.msky130_fd_pr__nfet_g5v0d10v5#sbody = 6.707442e-11
m.xm17.msky130_fd_pr__pfet_g5v0d10v5#body = 2.500000e+00
m.xm17.msky130_fd_pr__pfet_g5v0d10v5#dbody = 2.500000e+00
m.xm17.msky130_fd_pr__pfet_g5v0d10v5#sbody = 2.500000e+00
m.xm18.msky130_fd_pr__nfet_g5v0d10v5#body = 2.391942e-11
m.xm18.msky130_fd_pr__nfet_g5v0d10v5#dbody = 5.910162e-11
m.xm18.msky130_fd_pr__nfet_g5v0d10v5#sbody = 1.195978e-11
m.xm19.msky130_fd_pr__nfet_g5v0d10v5#body = 3.039706e-11
m.xm19.msky130_fd_pr__nfet_g5v0d10v5#dbody = 5.721932e-11
m.xm19.msky130_fd_pr__nfet_g5v0d10v5#sbody = 3.397185e-11
m.xm20.msky130_fd_pr__nfet_g5v0d10v5#body = 1.231990e-11
m.xm20.msky130_fd_pr__nfet_g5v0d10v5#dbody = 3.079968e-11
m.xm20.msky130_fd_pr__nfet_g5v0d10v5#sbody = 6.160021e-12
m.xm22.msky130_fd_pr__nfet_g5v0d10v5#body = 1.268211e-11
m.xm22.msky130_fd_pr__nfet_g5v0d10v5#dbody = 3.170516e-11
m.xm22.msky130_fd_pr__nfet_g5v0d10v5#sbody = 6.341158e-12
m.xm24.msky130_fd_pr__pfet_g5v0d10v5#body = 2.500000e+00
m.xm24.msky130_fd_pr__pfet_g5v0d10v5#dbody = 2.500000e+00
m.xm24.msky130_fd_pr__pfet_g5v0d10v5#sbody = 2.500000e+00
m.xm26.msky130_fd_pr__pfet_g5v0d10v5#body = 2.500000e+00
m.xm26.msky130_fd_pr__pfet_g5v0d10v5#dbody = 2.500000e+00
m.xm26.msky130_fd_pr__pfet_g5v0d10v5#sbody = 2.500000e+00
mir = 1.260441e+00
net1 = 6.283914e-01
net2 = 2.780274e-05
net3 = 7.016761e-01
net4 = 3.317375e-01
net5 = 1.261617e+00
net6 = 8.406219e-01
net7 = 7.016659e-01
net8 = 1.336515e+00
net9 = 1.355571e+00
net10 = 3.577146e-01
net11 = 1.730106e+00
net12 = 1.730106e+00
net13 = 0.000000e+00
out = 1.730106e+00
pos = 1.197958e+00
q.xq2.qsky130_fd_pr__pnp_05v5_w0p68l0p68#collcx = 2.840507e-03
q.xq3.qsky130_fd_pr__pnp_05v5_w0p68l0p68#collcx = 3.583273e-04
q.xq4.qsky130_fd_pr__pnp_05v5_w0p68l0p68#collcx = 3.583273e-04
q.xq8.qsky130_fd_pr__pnp_05v5_w0p68l0p68#collcx = 3.583273e-04
q.xq10.qsky130_fd_pr__pnp_05v5_w0p68l0p68#collcx = 3.583273e-04
q.xq12.qsky130_fd_pr__pnp_05v5_w0p68l0p68#collcx = 3.583273e-04
q.xq14.qsky130_fd_pr__pnp_05v5_w0p68l0p68#collcx = 3.583273e-04
q.xq16.qsky130_fd_pr__pnp_05v5_w0p68l0p68#collcx = 3.583273e-04
q.xq18.qsky130_fd_pr__pnp_05v5_w0p68l0p68#collcx = 3.583273e-04
vb = 8.300185e-01
vdd = 2.500000e+00
vs#branch = -1.83614e-04
vt#branch = 0.000000e+00
xc1.a = 0.000000e+00
xc1.b1 = 0.000000e+00
xc3.a = 1.730106e+00
xc3.b1 = 1.730106e+00
xr1.xsky130_fd_pr__res_xhigh_po_0p69.ra = 7.098980e-01
xr2.xsky130_fd_pr__res_xhigh_po_0p69.ra = 7.099082e-01
xr3.xsky130_fd_pr__res_xhigh_po_0p69.ra = 4.908489e-03
xr4.xsky130_fd_pr__res_xhigh_po_0p69.ra = 6.317608e-01
xr5.xsky130_fd_pr__res_xhigh_po_0p69.ra = 4.908414e-03
xr6.xsky130_fd_pr__res_xhigh_po_0p69.ra = 8.720460e-03
xr7.xsky130_fd_pr__res_xhigh_po_0p69.ra = 1.730106e+00
xr8.xsky130_fd_pr__res_xhigh_po_0p69.ra = 1.212460e+00
xr9.xsky130_fd_pr__res_xhigh_po_0p69.ra = 1.521067e-02
Doing analysis at TEMP = 85.000000 and TNOM = 27.000000


No. of Data Rows : 91
Note: Starting true gmin stepping
Trying gmin =   1.0000E-03 Note: One successful gmin step
Trying gmin =   1.0000E-04 Note: One successful gmin step
Trying gmin =   1.0000E-05 Note: One successful gmin step
Trying gmin =   1.0000E-06 Note: One successful gmin step
Trying gmin =   1.0000E-07 Note: One successful gmin step
Trying gmin =   1.0000E-08 Warning: Further gmin increment
Trying gmin =   5.6234E-08 Warning: Further gmin increment
Trying gmin =   8.6596E-08 Note: One successful gmin step
Trying gmin =   6.9783E-08 Note: One successful gmin step
Trying gmin =   5.6234E-08 Note: One successful gmin step
Trying gmin =   4.0679E-08 Note: One successful gmin step
Trying gmin =   2.5029E-08 Note: One successful gmin step
Trying gmin =   1.2079E-08 Note: One successful gmin step
Trying gmin =   4.0497E-09 Note: One successful gmin step
Trying gmin =   7.8615E-10 Note: One successful gmin step
Trying gmin =   7.8615E-11 Note: One successful gmin step
Trying gmin =   7.8615E-12 Note: One successful gmin step
Trying gmin =   1.0000E-12 Note: One successful gmin step
Note: True gmin stepping completed
 Reference value :  1.44000e+00Note: Starting true gmin stepping
Trying gmin =   1.0000E-03 Note: One successful gmin step
Trying gmin =   1.0000E-04 Note: One successful gmin step
Trying gmin =   1.0000E-05 Note: One successful gmin step
Trying gmin =   1.0000E-06 Note: One successful gmin step
Trying gmin =   1.0000E-07 Note: One successful gmin step
Trying gmin =   1.0000E-08 Warning: Further gmin increment
Trying gmin =   5.6234E-08 Warning: Further gmin increment
Trying gmin =   8.6596E-08 Note: One successful gmin step
Trying gmin =   6.9783E-08 Note: One successful gmin step
Trying gmin =   5.6234E-08 Note: One successful gmin step
Trying gmin =   4.0679E-08 Note: One successful gmin step
Trying gmin =   2.5029E-08 Note: One successful gmin step
Trying gmin =   1.2079E-08 Note: One successful gmin step
Trying gmin =   4.0497E-09 Note: One successful gmin step
Trying gmin =   7.8615E-10 Note: One successful gmin step
Trying gmin =   7.8615E-11 Note: One successful gmin step
Trying gmin =   7.8615E-12 Note: One successful gmin step
Trying gmin =   1.0000E-12 Note: One successful gmin step
Note: True gmin stepping completed
Note: Starting true gmin stepping
Trying gmin =   1.0000E-03 Note: One successful gmin step
Trying gmin =   1.0000E-04 Note: One successful gmin step
Trying gmin =   1.0000E-05 Note: One successful gmin step
Trying gmin =   1.0000E-06 Note: One successful gmin step
Trying gmin =   1.0000E-07 Note: One successful gmin step
Trying gmin =   1.0000E-08 Warning: Further gmin increment
Trying gmin =   5.6234E-08 Note: One successful gmin step
Trying gmin =   2.3714E-08 Note: One successful gmin step
Trying gmin =   1.0000E-08 Note: One successful gmin step
Trying gmin =   2.7384E-09 Note: One successful gmin step
Trying gmin =   3.9242E-10 Note: One successful gmin step
Trying gmin =   3.9242E-11 Note: One successful gmin step
Trying gmin =   3.9242E-12 Note: One successful gmin step
Trying gmin =   1.0000E-12 Note: One successful gmin step
Note: True gmin stepping completed
 Reference value :  1.26000e+00pm                  =  5.236687e+01
Doing analysis at TEMP = 85.000000 and TNOM = 27.000000


No. of Data Rows : 91
psrr100             =  -5.400412e+01
psrr100k            =  -2.680128e+01
Doing analysis at TEMP = 85.000000 and TNOM = 27.000000


No. of Data Rows : 86
temp_coeff = 1.135631e+02
Doing analysis at TEMP = 85.000000 and TNOM = 27.000000


No. of Data Rows : 141
vldo_sup_2          =  1.799964e+00
vldo_sup_2_8        =  1.802186e+00
line_reg = 2.777500e-03
Note: No ".plot", ".print", or ".fourier" lines; no simulations run
vin                 =  1.764178e+00
dropout = 1.780000e-04
