 Reference value :  0.00000e+00
No compatibility mode selected!


Circuit: * ldo netlist 

Doing analysis at TEMP = 27.000000 and TNOM = 27.000000


No. of Data Rows : 1
bg_out = 1.195710e+00
inn = 1.227310e+00
inp = 1.227256e+00
l1#branch = 0.000000e+00
ldo_out = 1.799400e+00
m.xm1.msky130_fd_pr__nfet_g5v0d10v5#body = 1.507946e-11
m.xm1.msky130_fd_pr__nfet_g5v0d10v5#dbody = 3.170765e-11
m.xm1.msky130_fd_pr__nfet_g5v0d10v5#sbody = 1.353075e-11
m.xm2.msky130_fd_pr__pfet_g5v0d10v5#body = 2.100000e+00
m.xm2.msky130_fd_pr__pfet_g5v0d10v5#dbody = 2.100000e+00
m.xm2.msky130_fd_pr__pfet_g5v0d10v5#sbody = 2.100000e+00
m.xm3.msky130_fd_pr__pfet_g5v0d10v5#body = 2.100000e+00
m.xm3.msky130_fd_pr__pfet_g5v0d10v5#dbody = 2.100000e+00
m.xm3.msky130_fd_pr__pfet_g5v0d10v5#sbody = 2.100000e+00
m.xm4.msky130_fd_pr__pfet_g5v0d10v5#body = 2.100000e+00
m.xm4.msky130_fd_pr__pfet_g5v0d10v5#dbody = 2.100000e+00
m.xm4.msky130_fd_pr__pfet_g5v0d10v5#sbody = 2.100000e+00
m.xm5.msky130_fd_pr__pfet_g5v0d10v5#body = 2.100000e+00
m.xm5.msky130_fd_pr__pfet_g5v0d10v5#dbody = 2.100000e+00
m.xm5.msky130_fd_pr__pfet_g5v0d10v5#sbody = 2.100000e+00
m.xm6.msky130_fd_pr__nfet_g5v0d10v5#body = 1.246231e-11
m.xm6.msky130_fd_pr__nfet_g5v0d10v5#dbody = 3.115577e-11
m.xm6.msky130_fd_pr__nfet_g5v0d10v5#sbody = 6.231160e-12
m.xm7.msky130_fd_pr__pfet_g5v0d10v5#body = 2.100000e+00
m.xm7.msky130_fd_pr__pfet_g5v0d10v5#dbody = 2.100000e+00
m.xm7.msky130_fd_pr__pfet_g5v0d10v5#sbody = 2.100000e+00
m.xm8.msky130_fd_pr__pfet_g5v0d10v5#body = 2.100000e+00
m.xm8.msky130_fd_pr__pfet_g5v0d10v5#dbody = 2.100000e+00
m.xm8.msky130_fd_pr__pfet_g5v0d10v5#sbody = 2.100000e+00
m.xm9.msky130_fd_pr__nfet_g5v0d10v5#body = 1.579932e-11
m.xm9.msky130_fd_pr__nfet_g5v0d10v5#dbody = 3.445319e-11
m.xm9.msky130_fd_pr__nfet_g5v0d10v5#sbody = 1.294477e-11
m.xm10.msky130_fd_pr__nfet_g5v0d10v5#body = 1.553651e-11
m.xm10.msky130_fd_pr__nfet_g5v0d10v5#dbody = 3.379616e-11
m.xm10.msky130_fd_pr__nfet_g5v0d10v5#sbody = 1.281337e-11
m.xm11.msky130_fd_pr__pfet_g5v0d10v5#body = 2.100000e+00
m.xm11.msky130_fd_pr__pfet_g5v0d10v5#dbody = 2.100000e+00
m.xm11.msky130_fd_pr__pfet_g5v0d10v5#sbody = 2.100000e+00
m.xm12.msky130_fd_pr__pfet_g5v0d10v5#body = 2.100000e+00
m.xm12.msky130_fd_pr__pfet_g5v0d10v5#dbody = 2.100000e+00
m.xm12.msky130_fd_pr__pfet_g5v0d10v5#sbody = 2.100000e+00
m.xm13.msky130_fd_pr__nfet_g5v0d10v5#body = 2.521200e-12
m.xm13.msky130_fd_pr__nfet_g5v0d10v5#dbody = 6.302989e-12
m.xm13.msky130_fd_pr__nfet_g5v0d10v5#sbody = 1.260611e-12
m.xm14.msky130_fd_pr__pfet_g5v0d10v5#body = 2.100000e+00
m.xm14.msky130_fd_pr__pfet_g5v0d10v5#dbody = 2.100000e+00
m.xm14.msky130_fd_pr__pfet_g5v0d10v5#sbody = 2.100000e+00
m.xm15.msky130_fd_pr__nfet_g5v0d10v5#body = 7.768589e-17
m.xm15.msky130_fd_pr__nfet_g5v0d10v5#dbody = 1.942115e-16
m.xm15.msky130_fd_pr__nfet_g5v0d10v5#sbody = 3.884613e-17
m.xm16.msky130_fd_pr__nfet_g5v0d10v5#body = 4.160013e-11
m.xm16.msky130_fd_pr__nfet_g5v0d10v5#dbody = 7.330882e-11
m.xm16.msky130_fd_pr__nfet_g5v0d10v5#sbody = 5.149158e-11
m.xm17.msky130_fd_pr__pfet_g5v0d10v5#body = 2.100000e+00
m.xm17.msky130_fd_pr__pfet_g5v0d10v5#dbody = 2.100000e+00
m.xm17.msky130_fd_pr__pfet_g5v0d10v5#sbody = 2.100000e+00
m.xm18.msky130_fd_pr__nfet_g5v0d10v5#body = 1.766296e-11
m.xm18.msky130_fd_pr__nfet_g5v0d10v5#dbody = 4.415508e-11
m.xm18.msky130_fd_pr__nfet_g5v0d10v5#sbody = 8.831491e-12
m.xm19.msky130_fd_pr__nfet_g5v0d10v5#body = 1.515485e-11
m.xm19.msky130_fd_pr__nfet_g5v0d10v5#dbody = 3.189610e-11
m.xm19.msky130_fd_pr__nfet_g5v0d10v5#sbody = 1.356844e-11
m.xm20.msky130_fd_pr__nfet_g5v0d10v5#body = 1.309615e-11
m.xm20.msky130_fd_pr__nfet_g5v0d10v5#dbody = 3.274036e-11
m.xm20.msky130_fd_pr__nfet_g5v0d10v5#sbody = 6.548088e-12
m.xm22.msky130_fd_pr__nfet_g5v0d10v5#body = 2.998220e-12
m.xm22.msky130_fd_pr__nfet_g5v0d10v5#dbody = 7.495544e-12
m.xm22.msky130_fd_pr__nfet_g5v0d10v5#sbody = 1.499115e-12
m.xm24.msky130_fd_pr__pfet_g5v0d10v5#body = 2.100000e+00
m.xm24.msky130_fd_pr__pfet_g5v0d10v5#dbody = 2.100000e+00
m.xm24.msky130_fd_pr__pfet_g5v0d10v5#sbody = 2.100000e+00
m.xm26.msky130_fd_pr__pfet_g5v0d10v5#body = 2.100000e+00
m.xm26.msky130_fd_pr__pfet_g5v0d10v5#dbody = 2.100000e+00
m.xm26.msky130_fd_pr__pfet_g5v0d10v5#sbody = 2.100000e+00
mir = 9.663666e-01
net1 = 7.274437e-01
net2 = 5.976806e-06
net3 = 7.873048e-01
net4 = 2.392905e-01
net5 = 9.723972e-01
net6 = 9.964176e-01
net7 = 7.872494e-01
net8 = 1.040875e+00
net9 = 1.061900e+00
net10 = 2.015631e-01
net11 = 1.412812e+00
net12 = 1.412812e+00
net13 = 0.000000e+00
out = 1.412812e+00
pos = 1.195936e+00
q.xq2.qsky130_fd_pr__pnp_05v5_w0p68l0p68#collcx = 2.276340e-03
q.xq3.qsky130_fd_pr__pnp_05v5_w0p68l0p68#collcx = 2.868918e-04
q.xq4.qsky130_fd_pr__pnp_05v5_w0p68l0p68#collcx = 2.868918e-04
q.xq8.qsky130_fd_pr__pnp_05v5_w0p68l0p68#collcx = 2.868918e-04
q.xq10.qsky130_fd_pr__pnp_05v5_w0p68l0p68#collcx = 2.868918e-04
q.xq12.qsky130_fd_pr__pnp_05v5_w0p68l0p68#collcx = 2.868918e-04
q.xq14.qsky130_fd_pr__pnp_05v5_w0p68l0p68#collcx = 2.868918e-04
q.xq16.qsky130_fd_pr__pnp_05v5_w0p68l0p68#collcx = 2.868918e-04
q.xq18.qsky130_fd_pr__pnp_05v5_w0p68l0p68#collcx = 2.868918e-04
vb = 1.047559e+00
vdd = 2.100000e+00
vs#branch = -1.80884e-04
vt#branch = 0.000000e+00
xc1.a = 0.000000e+00
xc1.b1 = 0.000000e+00
xc3.a = 1.412812e+00
xc3.b1 = 1.412812e+00
xr1.xsky130_fd_pr__res_xhigh_po_0p69.ra = 7.901522e-01
xr2.xsky130_fd_pr__res_xhigh_po_0p69.ra = 7.902076e-01
xr3.xsky130_fd_pr__res_xhigh_po_0p69.ra = 1.966616e-03
xr4.xsky130_fd_pr__res_xhigh_po_0p69.ra = 7.284180e-01
xr5.xsky130_fd_pr__res_xhigh_po_0p69.ra = 1.966468e-03
xr6.xsky130_fd_pr__res_xhigh_po_0p69.ra = 3.086583e-03
xr7.xsky130_fd_pr__res_xhigh_po_0p69.ra = 1.412812e+00
xr8.xsky130_fd_pr__res_xhigh_po_0p69.ra = 1.201066e+00
xr9.xsky130_fd_pr__res_xhigh_po_0p69.ra = 5.380641e-03
Doing analysis at TEMP = 27.000000 and TNOM = 27.000000


No. of Data Rows : 91
 Reference value :  1.16000e+00Note: Starting true gmin stepping
Trying gmin =   1.0000E-03 Note: One successful gmin step
Trying gmin =   1.0000E-04 Note: One successful gmin step
Trying gmin =   1.0000E-05 Note: One successful gmin step
Trying gmin =   1.0000E-06 Note: One successful gmin step
Trying gmin =   1.0000E-07 Note: One successful gmin step
Trying gmin =   1.0000E-08 Note: One successful gmin step
Trying gmin =   3.1623E-09 Note: One successful gmin step
Trying gmin =   5.6234E-10 Note: One successful gmin step
Trying gmin =   5.6234E-11 Note: One successful gmin step
Trying gmin =   5.6234E-12 Warning: Further gmin increment
Trying gmin =   3.1623E-11 Note: One successful gmin step
Trying gmin =   1.3335E-11 Note: One successful gmin step
Trying gmin =   3.6517E-12 Warning: Further gmin increment
Trying gmin =   9.6466E-12 Note: One successful gmin step
Trying gmin =   5.9352E-12 Note: One successful gmin step
Trying gmin =   2.8644E-12 Note: One successful gmin step
Trying gmin =   1.0000E-12 Note: One successful gmin step
Note: True gmin stepping completed
Note: Starting true gmin stepping
Trying gmin =   1.0000E-03 Note: One successful gmin step
Trying gmin =   1.0000E-04 Note: One successful gmin step
Trying gmin =   1.0000E-05 Note: One successful gmin step
Trying gmin =   1.0000E-06 Note: One successful gmin step
Trying gmin =   1.0000E-07 Note: One successful gmin step
Trying gmin =   1.0000E-08 Note: One successful gmin step
Trying gmin =   3.1623E-09 Note: One successful gmin step
Trying gmin =   5.6234E-10 Note: One successful gmin step
Trying gmin =   5.6234E-11 Note: One successful gmin step
Trying gmin =   5.6234E-12 Warning: Further gmin increment
Trying gmin =   3.1623E-11 Note: One successful gmin step
Trying gmin =   1.3335E-11 Note: One successful gmin step
Trying gmin =   3.6517E-12 Warning: Further gmin increment
Trying gmin =   9.6466E-12 Note: One successful gmin step
Trying gmin =   5.9352E-12 Note: One successful gmin step
Trying gmin =   2.8644E-12 Note: One successful gmin step
Trying gmin =   1.0000E-12 Note: One successful gmin step
Note: True gmin stepping completed
 Reference value :  1.12000e+00pm                  =  5.941813e+01
Doing analysis at TEMP = 27.000000 and TNOM = 27.000000


No. of Data Rows : 91
psrr100             =  -7.408846e+01
psrr100k            =  -2.557395e+01
Doing analysis at TEMP = 27.000000 and TNOM = 27.000000


No. of Data Rows : 86
temp_coeff = 1.508516e+02
Doing analysis at TEMP = 27.000000 and TNOM = 27.000000


No. of Data Rows : 141
vldo_sup_2          =  -3.950601e+01
vldo_sup_2_8        =  -3.920169e+01
line_reg = 3.804000e-01
Error(parse.c--checkvalid): vin: zero length vector.
Error: RHS "vin-1.764" invalid
Error(parse.c--checkvalid): dropout: zero length vector.
Error: no such vector dropout
Note: No ".plot", ".print", or ".fourier" lines; no simulations run

Error: measure  vin  (WHEN) : out of interval
 meas dc vin when v(ldo_out)=1.764 failed!

