 Reference value :  0.00000e+00
No compatibility mode selected!


Circuit: * ldo netlist 

Doing analysis at TEMP = 27.000000 and TNOM = 27.000000


No. of Data Rows : 1
bg_out = 1.197101e+00
inn = 1.230983e+00
inp = 1.230916e+00
l1#branch = 0.000000e+00
ldo_out = 1.800544e+00
m.xm1.msky130_fd_pr__nfet_g5v0d10v5#body = 1.333544e-11
m.xm1.msky130_fd_pr__nfet_g5v0d10v5#dbody = 2.691039e-11
m.xm1.msky130_fd_pr__nfet_g5v0d10v5#sbody = 1.309594e-11
m.xm2.msky130_fd_pr__pfet_g5v0d10v5#body = 2.100000e+00
m.xm2.msky130_fd_pr__pfet_g5v0d10v5#dbody = 2.100000e+00
m.xm2.msky130_fd_pr__pfet_g5v0d10v5#sbody = 2.100000e+00
m.xm3.msky130_fd_pr__pfet_g5v0d10v5#body = 2.100000e+00
m.xm3.msky130_fd_pr__pfet_g5v0d10v5#dbody = 2.100000e+00
m.xm3.msky130_fd_pr__pfet_g5v0d10v5#sbody = 2.100000e+00
m.xm4.msky130_fd_pr__pfet_g5v0d10v5#body = 2.100000e+00
m.xm4.msky130_fd_pr__pfet_g5v0d10v5#dbody = 2.100000e+00
m.xm4.msky130_fd_pr__pfet_g5v0d10v5#sbody = 2.100000e+00
m.xm5.msky130_fd_pr__pfet_g5v0d10v5#body = 2.100000e+00
m.xm5.msky130_fd_pr__pfet_g5v0d10v5#dbody = 2.100000e+00
m.xm5.msky130_fd_pr__pfet_g5v0d10v5#sbody = 2.100000e+00
m.xm6.msky130_fd_pr__nfet_g5v0d10v5#body = 1.223339e-11
m.xm6.msky130_fd_pr__nfet_g5v0d10v5#dbody = 3.058346e-11
m.xm6.msky130_fd_pr__nfet_g5v0d10v5#sbody = 6.116698e-12
m.xm7.msky130_fd_pr__pfet_g5v0d10v5#body = 2.100000e+00
m.xm7.msky130_fd_pr__pfet_g5v0d10v5#dbody = 2.100000e+00
m.xm7.msky130_fd_pr__pfet_g5v0d10v5#sbody = 2.100000e+00
m.xm8.msky130_fd_pr__pfet_g5v0d10v5#body = 2.100000e+00
m.xm8.msky130_fd_pr__pfet_g5v0d10v5#dbody = 2.100000e+00
m.xm8.msky130_fd_pr__pfet_g5v0d10v5#sbody = 2.100000e+00
m.xm9.msky130_fd_pr__nfet_g5v0d10v5#body = 1.405062e-11
m.xm9.msky130_fd_pr__nfet_g5v0d10v5#dbody = 2.968595e-11
m.xm9.msky130_fd_pr__nfet_g5v0d10v5#sbody = 1.246591e-11
m.xm10.msky130_fd_pr__nfet_g5v0d10v5#body = 1.401459e-11
m.xm10.msky130_fd_pr__nfet_g5v0d10v5#dbody = 2.959587e-11
m.xm10.msky130_fd_pr__nfet_g5v0d10v5#sbody = 1.244789e-11
m.xm11.msky130_fd_pr__pfet_g5v0d10v5#body = 2.100000e+00
m.xm11.msky130_fd_pr__pfet_g5v0d10v5#dbody = 2.100000e+00
m.xm11.msky130_fd_pr__pfet_g5v0d10v5#sbody = 2.100000e+00
m.xm12.msky130_fd_pr__pfet_g5v0d10v5#body = 2.100000e+00
m.xm12.msky130_fd_pr__pfet_g5v0d10v5#dbody = 2.100000e+00
m.xm12.msky130_fd_pr__pfet_g5v0d10v5#sbody = 2.100000e+00
m.xm13.msky130_fd_pr__nfet_g5v0d10v5#body = 2.718942e-12
m.xm13.msky130_fd_pr__nfet_g5v0d10v5#dbody = 6.797345e-12
m.xm13.msky130_fd_pr__nfet_g5v0d10v5#sbody = 1.359481e-12
m.xm14.msky130_fd_pr__pfet_g5v0d10v5#body = 2.100000e+00
m.xm14.msky130_fd_pr__pfet_g5v0d10v5#dbody = 2.100000e+00
m.xm14.msky130_fd_pr__pfet_g5v0d10v5#sbody = 2.100000e+00
m.xm15.msky130_fd_pr__nfet_g5v0d10v5#body = 6.422545e-18
m.xm15.msky130_fd_pr__nfet_g5v0d10v5#dbody = 1.605606e-17
m.xm15.msky130_fd_pr__nfet_g5v0d10v5#sbody = 3.211576e-18
m.xm16.msky130_fd_pr__nfet_g5v0d10v5#body = 4.164602e-11
m.xm16.msky130_fd_pr__nfet_g5v0d10v5#dbody = 7.333174e-11
m.xm16.msky130_fd_pr__nfet_g5v0d10v5#sbody = 5.160631e-11
m.xm17.msky130_fd_pr__pfet_g5v0d10v5#body = 2.100000e+00
m.xm17.msky130_fd_pr__pfet_g5v0d10v5#dbody = 2.100000e+00
m.xm17.msky130_fd_pr__pfet_g5v0d10v5#sbody = 2.100000e+00
m.xm18.msky130_fd_pr__nfet_g5v0d10v5#body = 4.338434e-12
m.xm18.msky130_fd_pr__nfet_g5v0d10v5#dbody = 1.084607e-11
m.xm18.msky130_fd_pr__nfet_g5v0d10v5#sbody = 2.169228e-12
m.xm19.msky130_fd_pr__nfet_g5v0d10v5#body = 1.341525e-11
m.xm19.msky130_fd_pr__nfet_g5v0d10v5#dbody = 2.710990e-11
m.xm19.msky130_fd_pr__nfet_g5v0d10v5#sbody = 1.313584e-11
m.xm20.msky130_fd_pr__nfet_g5v0d10v5#body = 1.280634e-11
m.xm20.msky130_fd_pr__nfet_g5v0d10v5#dbody = 3.201583e-11
m.xm20.msky130_fd_pr__nfet_g5v0d10v5#sbody = 6.403182e-12
m.xm22.msky130_fd_pr__nfet_g5v0d10v5#body = 3.216821e-12
m.xm22.msky130_fd_pr__nfet_g5v0d10v5#dbody = 8.042049e-12
m.xm22.msky130_fd_pr__nfet_g5v0d10v5#sbody = 1.608415e-12
m.xm24.msky130_fd_pr__pfet_g5v0d10v5#body = 2.100000e+00
m.xm24.msky130_fd_pr__pfet_g5v0d10v5#dbody = 2.100000e+00
m.xm24.msky130_fd_pr__pfet_g5v0d10v5#sbody = 2.100000e+00
m.xm26.msky130_fd_pr__pfet_g5v0d10v5#body = 2.100000e+00
m.xm26.msky130_fd_pr__pfet_g5v0d10v5#dbody = 2.100000e+00
m.xm26.msky130_fd_pr__pfet_g5v0d10v5#sbody = 2.100000e+00
mir = 8.093576e-01
net1 = 7.317123e-01
net2 = 4.941325e-07
net3 = 7.910974e-01
net4 = 2.567793e-01
net5 = 8.157419e-01
net6 = 9.781044e-01
net7 = 7.910287e-01
net8 = 9.033024e-01
net9 = 9.061848e-01
net10 = 2.173832e-01
net11 = 3.469424e-01
net12 = 3.469424e-01
net13 = 0.000000e+00
out = 3.469424e-01
pos = 1.197135e+00
q.xq2.qsky130_fd_pr__pnp_05v5_w0p68l0p68#collcx = 2.031937e-03
q.xq3.qsky130_fd_pr__pnp_05v5_w0p68l0p68#collcx = 2.576528e-04
q.xq4.qsky130_fd_pr__pnp_05v5_w0p68l0p68#collcx = 2.576528e-04
q.xq8.qsky130_fd_pr__pnp_05v5_w0p68l0p68#collcx = 2.576528e-04
q.xq10.qsky130_fd_pr__pnp_05v5_w0p68l0p68#collcx = 2.576528e-04
q.xq12.qsky130_fd_pr__pnp_05v5_w0p68l0p68#collcx = 2.576528e-04
q.xq14.qsky130_fd_pr__pnp_05v5_w0p68l0p68#collcx = 2.576528e-04
q.xq16.qsky130_fd_pr__pnp_05v5_w0p68l0p68#collcx = 2.576528e-04
q.xq18.qsky130_fd_pr__pnp_05v5_w0p68l0p68#collcx = 2.576528e-04
vb = 1.024375e+00
vdd = 2.100000e+00
vs#branch = -1.00154e-01
vt#branch = 0.000000e+00
xc1.a = 0.000000e+00
xc1.b1 = 0.000000e+00
xc3.a = 3.469424e-01
xc3.b1 = 3.469424e-01
xr1.xsky130_fd_pr__res_xhigh_po_0p69.ra = 7.963666e-01
xr2.xsky130_fd_pr__res_xhigh_po_0p69.ra = 7.964354e-01
xr3.xsky130_fd_pr__res_xhigh_po_0p69.ra = 3.631193e-03
xr4.xsky130_fd_pr__res_xhigh_po_0p69.ra = 7.334908e-01
xr5.xsky130_fd_pr__res_xhigh_po_0p69.ra = 3.630856e-03
xr6.xsky130_fd_pr__res_xhigh_po_0p69.ra = 5.676792e-03
xr7.xsky130_fd_pr__res_xhigh_po_0p69.ra = 3.469424e-01
xr8.xsky130_fd_pr__res_xhigh_po_0p69.ra = 1.206573e+00
xr9.xsky130_fd_pr__res_xhigh_po_0p69.ra = 9.899481e-03
Doing analysis at TEMP = 27.000000 and TNOM = 27.000000


No. of Data Rows : 91
Note: Starting true gmin stepping
Trying gmin =   1.0000E-03 Note: One successful gmin step
Trying gmin =   1.0000E-04 Note: One successful gmin step
Trying gmin =   1.0000E-05 Note: One successful gmin step
Trying gmin =   1.0000E-06 Note: One successful gmin step
Trying gmin =   1.0000E-07 Note: One successful gmin step
Trying gmin =   1.0000E-08 Warning: Further gmin increment
Trying gmin =   5.6234E-08 Warning: Further gmin increment
Trying gmin =   8.6596E-08 Note: One successful gmin step
Trying gmin =   6.9783E-08 Warning: Further gmin increment
Trying gmin =   8.2047E-08 Note: One successful gmin step
Trying gmin =   7.5667E-08 Note: One successful gmin step
Trying gmin =   6.7015E-08 Warning: Further gmin increment
Trying gmin =   7.3404E-08 Note: One successful gmin step
Trying gmin =   7.0137E-08 Warning: Further gmin increment
Trying gmin =   7.2574E-08 Note: One successful gmin step
Trying gmin =   7.1345E-08 Note: One successful gmin step
Trying gmin =   6.9541E-08 Warning: Further gmin increment
Trying gmin =   7.0890E-08 Note: One successful gmin step
Trying gmin =   7.0212E-08 Note: One successful gmin step
Trying gmin =   6.9208E-08 Warning: Further gmin increment
Trying gmin =   6.9959E-08 Warning: Further gmin increment
Trying gmin =   7.0149E-08 Warning: Further gmin increment
Trying gmin =   7.0196E-08 Note: One successful gmin step
Trying gmin =   7.0172E-08 Warning: Further gmin increment
Trying gmin =   7.0190E-08 Note: One successful gmin step
Trying gmin =   7.0181E-08 Warning: Further gmin increment
Trying gmin =   7.0188E-08 Note: One successful gmin step
Trying gmin =   7.0185E-08 Warning: Last gmin step failed
Warning: True gmin stepping failed
Note: Starting dynamic gmin stepping
Trying gmin =   1.0000E-03 Note: One successful gmin step
Trying gmin =   1.0000E-04 Note: One successful gmin step
Trying gmin =   1.0000E-05 Note: One successful gmin step
Trying gmin =   1.0000E-06 Warning: Further gmin increment
Trying gmin =   5.6234E-06 Note: One successful gmin step
Trying gmin =   2.3714E-06 Note: One successful gmin step
Trying gmin =   1.5399E-06 Note: One successful gmin step
Trying gmin =   8.0584E-07 Note: One successful gmin step
Trying gmin =   3.0505E-07 Warning: Further gmin increment
Trying gmin =   6.3209E-07 Note: One successful gmin step
Trying gmin =   4.3911E-07 Note: One successful gmin step
Trying gmin =   2.5426E-07 Warning: Further gmin increment
Trying gmin =   3.8305E-07 Note: One successful gmin step
Trying gmin =   3.1208E-07 Warning: Further gmin increment
Trying gmin =   3.6392E-07 Note: One successful gmin step
Trying gmin =   3.3700E-07 Note: One successful gmin step
Trying gmin =   3.0032E-07 Warning: Further gmin increment
Trying gmin =   3.2743E-07 Warning: Further gmin increment
Trying gmin =   3.3458E-07 Note: One successful gmin step
Trying gmin =   3.3099E-07 Note: One successful gmin step
Trying gmin =   3.2567E-07 Warning: Further gmin increment
Trying gmin =   3.2965E-07 Note: One successful gmin step
Trying gmin =   3.2765E-07 Warning: Further gmin increment
Trying gmin =   3.2915E-07 Note: One successful gmin step
Trying gmin =   3.2840E-07 Note: One successful gmin step
Trying gmin =   3.2728E-07 Warning: Further gmin increment
Trying gmin =   3.2812E-07 Note: One successful gmin step
Trying gmin =   3.2770E-07 Warning: Further gmin increment
Trying gmin =   3.2801E-07 Note: One successful gmin step
Trying gmin =   3.2786E-07 Warning: Further gmin increment
Trying gmin =   3.2797E-07 Note: One successful gmin step
Trying gmin =   3.2792E-07 Warning: Further gmin increment
Trying gmin =   3.2796E-07 Note: One successful gmin step
Trying gmin =   3.2794E-07 Warning: Further gmin increment
Trying gmin =   3.2795E-07 Warning: Last gmin step failed
Warning: Dynamic gmin stepping failed
Note: Starting source stepping
Supplies reduced to   0.0000% Note: One successful source step
Supplies reduced to   0.1000% Note: One successful source step
Supplies reduced to   0.2000% Note: One successful source step
Supplies reduced to   0.3500% Note: One successful source step
Supplies reduced to   0.5750% Note: One successful source step
Supplies reduced to   0.9125% Note: One successful source step
Supplies reduced to   1.4188% Note: One successful source step
Supplies reduced to   2.1781% Note: One successful source step
Supplies reduced to   3.3172% Note: One successful source step
Supplies reduced to   5.0258% Note: One successful source step
Supplies reduced to   7.5887% Note: One successful source step
Supplies reduced to  11.4330% Note: One successful source step
Supplies reduced to  17.1995% Note: One successful source step
Supplies reduced to  25.8493% Note: One successful source step
Supplies reduced to  38.8239% Supplies reduced to  25.8493% Note: One successful source step
Supplies reduced to  26.8493% Note: One successful source step
Supplies reduced to  28.3493% Note: One successful source step
Supplies reduced to  30.5993% Note: One successful source step
Supplies reduced to  33.9743% Note: One successful source step
Supplies reduced to  39.0368% Note: One successful source step
Supplies reduced to  46.6305% Supplies reduced to  39.0368% Note: One successful source step
Supplies reduced to  40.0368% Note: One successful source step
Supplies reduced to  41.5368% Note: One successful source step
Supplies reduced to  43.7868% Note: One successful source step
Supplies reduced to  47.1618% Supplies reduced to  43.7868% Note: One successful source step
Supplies reduced to  44.2930% Note: One successful source step
Supplies reduced to  45.0524% Note: One successful source step
Supplies reduced to  46.1915% Note: One successful source step
Supplies reduced to  47.9000% Note: One successful source step
Supplies reduced to  49.6086% Note: One successful source step
Supplies reduced to  52.1715% Note: One successful source step
Supplies reduced to  56.0159% Note: One successful source step
Supplies reduced to  61.7824% Note: One successful source step
Supplies reduced to  70.4321% Supplies reduced to  61.7824% Note: One successful source step
Supplies reduced to  62.7824% Note: One successful source step
Supplies reduced to  64.2824% Note: One successful source step
Supplies reduced to  66.5324% Note: One successful source step
Supplies reduced to  69.9074% Supplies reduced to  66.5324% Note: One successful source step
Supplies reduced to  67.0386% Note: One successful source step
Supplies reduced to  67.7980% Note: One successful source step
Supplies reduced to  68.9371% Note: One successful source step
Supplies reduced to  70.6457% Supplies reduced to  68.9371% Note: One successful source step
Supplies reduced to  69.1933% Note: One successful source step
Supplies reduced to  69.5778% Supplies reduced to  69.1933% Note: One successful source step
Supplies reduced to  69.2510% Note: One successful source step
Supplies reduced to  69.3375% Note: One successful source step
Supplies reduced to  69.4673% Note: One successful source step
Supplies reduced to  69.6619% Supplies reduced to  69.4673% Note: One successful source step
Supplies reduced to  69.4965% Note: One successful source step
Supplies reduced to  69.5402% Supplies reduced to  69.4965% Note: One successful source step
Supplies reduced to  69.5030% Note: One successful source step
Supplies reduced to  69.5129% Note: One successful source step
Supplies reduced to  69.5277% Supplies reduced to  69.5129% Note: One successful source step
Supplies reduced to  69.5151% Note: One successful source step
Supplies reduced to  69.5184% Note: One successful source step
Supplies reduced to  69.5234% Supplies reduced to  69.5184% Note: One successful source step
Supplies reduced to  69.5192% Note: One successful source step
Supplies reduced to  69.5203% Note: One successful source step
Supplies reduced to  69.5220% Supplies reduced to  69.5203% Note: One successful source step
Supplies reduced to  69.5205% Note: One successful source step
Supplies reduced to  69.5209% Note: One successful source step
Supplies reduced to  69.5215% Supplies reduced to  69.5209% Note: One successful source step
Supplies reduced to  69.5210% Note: One successful source step
Supplies reduced to  69.5211% Supplies reduced to  69.5210% Note: One successful source step
Supplies reduced to  69.5210% Note: One successful source step
Supplies reduced to  69.5210% Warning: source stepping failed
doAnalyses: Too many iterations without convergence

dc simulation(s) aborted
Error(parse.c--checkvalid): vldo_sup_2_8: zero length vector.
Error: RHS "abs((vldo_sup_2_8-vldo_sup_2)/0.8)" invalid
Error(parse.c--checkvalid): line_reg: zero length vector.
Error(parse.c--checkvalid): vin: zero length vector.
Error: RHS "vin-1.764" invalid
Error(parse.c--checkvalid): dropout: zero length vector.
Error: no such vector dropout
Note: No ".plot", ".print", or ".fourier" lines; no simulations run
pm                  =  1.043516e+02
Doing analysis at TEMP = 27.000000 and TNOM = 27.000000


No. of Data Rows : 91
psrr100             =  -5.452167e+01
psrr100k            =  -1.812198e+01
Doing analysis at TEMP = 27.000000 and TNOM = 27.000000


No. of Data Rows : 86
temp_coeff = 1.313094e+02
Doing analysis at TEMP = 27.000000 and TNOM = 27.000000


Error: measure  vldo_sup_2  (AT) : out of interval
 meas dc vldo_sup_2 find ldo_out at=2 failed!


Error: measure  vldo_sup_2_8  (AT) : out of interval
 meas dc vldo_sup_2_8 find ldo_out at=2.8 failed!


Error: measure  vin  (WHEN) : out of interval
 meas dc vin when v(ldo_out)=1.764 failed!

