 Reference value :  0.00000e+00
No compatibility mode selected!


Circuit: * ldo netlist 

Doing analysis at TEMP = 27.000000 and TNOM = 27.000000


No. of Data Rows : 1
bg_out = 1.099015e+00
inn = 1.144252e+00
inp = 1.144191e+00
l1#branch = -2.77556e-17
ldo_out = 1.807022e+00
m.xm1.msky130_fd_pr__nfet_g5v0d10v5#body = 1.312663e-11
m.xm1.msky130_fd_pr__nfet_g5v0d10v5#dbody = 2.592120e-11
m.xm1.msky130_fd_pr__nfet_g5v0d10v5#sbody = 1.345868e-11
m.xm2.msky130_fd_pr__pfet_g5v0d10v5#body = 2.100000e+00
m.xm2.msky130_fd_pr__pfet_g5v0d10v5#dbody = 2.100000e+00
m.xm2.msky130_fd_pr__pfet_g5v0d10v5#sbody = 2.100000e+00
m.xm3.msky130_fd_pr__pfet_g5v0d10v5#body = 2.100000e+00
m.xm3.msky130_fd_pr__pfet_g5v0d10v5#dbody = 2.100000e+00
m.xm3.msky130_fd_pr__pfet_g5v0d10v5#sbody = 2.100000e+00
m.xm4.msky130_fd_pr__pfet_g5v0d10v5#body = 2.100000e+00
m.xm4.msky130_fd_pr__pfet_g5v0d10v5#dbody = 2.100000e+00
m.xm4.msky130_fd_pr__pfet_g5v0d10v5#sbody = 2.100000e+00
m.xm5.msky130_fd_pr__pfet_g5v0d10v5#body = 2.100000e+00
m.xm5.msky130_fd_pr__pfet_g5v0d10v5#dbody = 2.100000e+00
m.xm5.msky130_fd_pr__pfet_g5v0d10v5#sbody = 2.100000e+00
m.xm6.msky130_fd_pr__nfet_g5v0d10v5#body = 1.119913e-11
m.xm6.msky130_fd_pr__nfet_g5v0d10v5#dbody = 2.799781e-11
m.xm6.msky130_fd_pr__nfet_g5v0d10v5#sbody = 5.599568e-12
m.xm7.msky130_fd_pr__pfet_g5v0d10v5#body = 2.100000e+00
m.xm7.msky130_fd_pr__pfet_g5v0d10v5#dbody = 2.100000e+00
m.xm7.msky130_fd_pr__pfet_g5v0d10v5#sbody = 2.100000e+00
m.xm8.msky130_fd_pr__pfet_g5v0d10v5#body = 2.100000e+00
m.xm8.msky130_fd_pr__pfet_g5v0d10v5#dbody = 2.100000e+00
m.xm8.msky130_fd_pr__pfet_g5v0d10v5#sbody = 2.100000e+00
m.xm9.msky130_fd_pr__nfet_g5v0d10v5#body = 1.378937e-11
m.xm9.msky130_fd_pr__nfet_g5v0d10v5#dbody = 2.869108e-11
m.xm9.msky130_fd_pr__nfet_g5v0d10v5#sbody = 1.267703e-11
m.xm10.msky130_fd_pr__nfet_g5v0d10v5#body = 1.354781e-11
m.xm10.msky130_fd_pr__nfet_g5v0d10v5#dbody = 2.808718e-11
m.xm10.msky130_fd_pr__nfet_g5v0d10v5#sbody = 1.255625e-11
m.xm11.msky130_fd_pr__pfet_g5v0d10v5#body = 2.100000e+00
m.xm11.msky130_fd_pr__pfet_g5v0d10v5#dbody = 2.100000e+00
m.xm11.msky130_fd_pr__pfet_g5v0d10v5#sbody = 2.100000e+00
m.xm12.msky130_fd_pr__pfet_g5v0d10v5#body = 2.100000e+00
m.xm12.msky130_fd_pr__pfet_g5v0d10v5#dbody = 2.100000e+00
m.xm12.msky130_fd_pr__pfet_g5v0d10v5#sbody = 2.100000e+00
m.xm13.msky130_fd_pr__nfet_g5v0d10v5#body = 2.889814e-12
m.xm13.msky130_fd_pr__nfet_g5v0d10v5#dbody = 7.224523e-12
m.xm13.msky130_fd_pr__nfet_g5v0d10v5#sbody = 1.444918e-12
m.xm14.msky130_fd_pr__pfet_g5v0d10v5#body = 2.100000e+00
m.xm14.msky130_fd_pr__pfet_g5v0d10v5#dbody = 2.100000e+00
m.xm14.msky130_fd_pr__pfet_g5v0d10v5#sbody = 2.100000e+00
m.xm15.msky130_fd_pr__nfet_g5v0d10v5#body = 1.314646e-17
m.xm15.msky130_fd_pr__nfet_g5v0d10v5#dbody = 3.286513e-17
m.xm15.msky130_fd_pr__nfet_g5v0d10v5#sbody = 6.574251e-18
m.xm16.msky130_fd_pr__nfet_g5v0d10v5#body = 4.056178e-11
m.xm16.msky130_fd_pr__nfet_g5v0d10v5#dbody = 7.278952e-11
m.xm16.msky130_fd_pr__nfet_g5v0d10v5#sbody = 4.889581e-11
m.xm17.msky130_fd_pr__pfet_g5v0d10v5#body = 2.100000e+00
m.xm17.msky130_fd_pr__pfet_g5v0d10v5#dbody = 2.100000e+00
m.xm17.msky130_fd_pr__pfet_g5v0d10v5#sbody = 2.100000e+00
m.xm18.msky130_fd_pr__nfet_g5v0d10v5#body = 1.487671e-11
m.xm18.msky130_fd_pr__nfet_g5v0d10v5#dbody = 3.719175e-11
m.xm18.msky130_fd_pr__nfet_g5v0d10v5#sbody = 7.438366e-12
m.xm19.msky130_fd_pr__nfet_g5v0d10v5#body = 1.319401e-11
m.xm19.msky130_fd_pr__nfet_g5v0d10v5#dbody = 2.608965e-11
m.xm19.msky130_fd_pr__nfet_g5v0d10v5#sbody = 1.349237e-11
m.xm20.msky130_fd_pr__nfet_g5v0d10v5#body = 1.111400e-11
m.xm20.msky130_fd_pr__nfet_g5v0d10v5#dbody = 2.778497e-11
m.xm20.msky130_fd_pr__nfet_g5v0d10v5#sbody = 5.557011e-12
m.xm22.msky130_fd_pr__nfet_g5v0d10v5#body = 3.450396e-12
m.xm22.msky130_fd_pr__nfet_g5v0d10v5#dbody = 8.625985e-12
m.xm22.msky130_fd_pr__nfet_g5v0d10v5#sbody = 1.725203e-12
m.xm24.msky130_fd_pr__pfet_g5v0d10v5#body = 2.100000e+00
m.xm24.msky130_fd_pr__pfet_g5v0d10v5#dbody = 2.100000e+00
m.xm24.msky130_fd_pr__pfet_g5v0d10v5#sbody = 2.100000e+00
m.xm26.msky130_fd_pr__pfet_g5v0d10v5#body = 2.100000e+00
m.xm26.msky130_fd_pr__pfet_g5v0d10v5#dbody = 2.100000e+00
m.xm26.msky130_fd_pr__pfet_g5v0d10v5#sbody = 2.100000e+00
mir = 7.739704e-01
net1 = 7.274402e-01
net2 = 1.011597e-06
net3 = 7.873001e-01
net4 = 2.754694e-01
net5 = 7.793607e-01
net6 = 8.953677e-01
net7 = 7.872382e-01
net8 = 8.522946e-01
net9 = 8.716194e-01
net10 = 2.310570e-01
net11 = 1.190008e+00
net12 = 1.190008e+00
net13 = 0.000000e+00
out = 1.190008e+00
pos = 1.099246e+00
q.xq2.qsky130_fd_pr__pnp_05v5_w0p68l0p68#collcx = 2.275998e-03
q.xq3.qsky130_fd_pr__pnp_05v5_w0p68l0p68#collcx = 2.868551e-04
q.xq4.qsky130_fd_pr__pnp_05v5_w0p68l0p68#collcx = 2.868551e-04
q.xq8.qsky130_fd_pr__pnp_05v5_w0p68l0p68#collcx = 2.868551e-04
q.xq10.qsky130_fd_pr__pnp_05v5_w0p68l0p68#collcx = 2.868551e-04
q.xq12.qsky130_fd_pr__pnp_05v5_w0p68l0p68#collcx = 2.868551e-04
q.xq14.qsky130_fd_pr__pnp_05v5_w0p68l0p68#collcx = 2.868551e-04
q.xq16.qsky130_fd_pr__pnp_05v5_w0p68l0p68#collcx = 2.868551e-04
q.xq18.qsky130_fd_pr__pnp_05v5_w0p68l0p68#collcx = 2.868551e-04
vb = 8.889914e-01
vdd = 2.100000e+00
vs#branch = -1.83646e-04
vt#branch = 0.000000e+00
xc1.a = 0.000000e+00
xc1.b1 = 0.000000e+00
xc3.a = 1.190008e+00
xc3.b1 = 1.190008e+00
xr1.xsky130_fd_pr__res_xhigh_po_0p69.ra = 7.902202e-01
xr2.xsky130_fd_pr__res_xhigh_po_0p69.ra = 7.902820e-01
xr3.xsky130_fd_pr__res_xhigh_po_0p69.ra = 2.064371e-03
xr4.xsky130_fd_pr__res_xhigh_po_0p69.ra = 7.284144e-01
xr5.xsky130_fd_pr__res_xhigh_po_0p69.ra = 2.064198e-03
xr6.xsky130_fd_pr__res_xhigh_po_0p69.ra = 3.165909e-03
xr7.xsky130_fd_pr__res_xhigh_po_0p69.ra = 1.190008e+00
xr8.xsky130_fd_pr__res_xhigh_po_0p69.ra = 1.104054e+00
xr9.xsky130_fd_pr__res_xhigh_po_0p69.ra = 4.963907e-03
Doing analysis at TEMP = 27.000000 and TNOM = 27.000000


No. of Data Rows : 91
Note: Starting true gmin stepping
Trying gmin =   1.0000E-03 Note: One successful gmin step
Trying gmin =   1.0000E-04 Note: One successful gmin step
Trying gmin =   1.0000E-05 Note: One successful gmin step
Trying gmin =   1.0000E-06 Note: One successful gmin step
Trying gmin =   1.0000E-07 Note: One successful gmin step
Trying gmin =   1.0000E-08 Warning: Further gmin increment
Trying gmin =   5.6234E-08 Note: One successful gmin step
Trying gmin =   2.3714E-08 Warning: Further gmin increment
Trying gmin =   4.5316E-08 Note: One successful gmin step
Trying gmin =   3.2781E-08 Note: One successful gmin step
Trying gmin =   2.0169E-08 Note: One successful gmin step
Trying gmin =   9.7338E-09 Note: One successful gmin step
Trying gmin =   3.2634E-09 Note: One successful gmin step
Trying gmin =   6.3352E-10 Note: One successful gmin step
Trying gmin =   6.3352E-11 Note: One successful gmin step
Trying gmin =   6.3352E-12 Note: One successful gmin step
Trying gmin =   1.0000E-12 Note: One successful gmin step
Note: True gmin stepping completed
 Reference value :  1.52000e+00Note: Starting true gmin stepping
Trying gmin =   1.0000E-03 Note: One successful gmin step
Trying gmin =   1.0000E-04 Note: One successful gmin step
Trying gmin =   1.0000E-05 Note: One successful gmin step
Trying gmin =   1.0000E-06 Note: One successful gmin step
Trying gmin =   1.0000E-07 Note: One successful gmin step
Trying gmin =   1.0000E-08 Warning: Further gmin increment
Trying gmin =   5.6234E-08 Note: One successful gmin step
Trying gmin =   3.1623E-08 Note: One successful gmin step
Trying gmin =   1.7783E-08 Note: One successful gmin step
Trying gmin =   7.4989E-09 Note: One successful gmin step
Trying gmin =   2.0535E-09 Note: One successful gmin step
Trying gmin =   2.9427E-10 Note: One successful gmin step
Trying gmin =   2.9427E-11 Note: One successful gmin step
Trying gmin =   2.9427E-12 Note: One successful gmin step
Trying gmin =   1.0000E-12 Note: One successful gmin step
Note: True gmin stepping completed
Note: Starting true gmin stepping
Trying gmin =   1.0000E-03 Note: One successful gmin step
Trying gmin =   1.0000E-04 Note: One successful gmin step
Trying gmin =   1.0000E-05 Note: One successful gmin step
Trying gmin =   1.0000E-06 Note: One successful gmin step
Trying gmin =   1.0000E-07 Note: One successful gmin step
Trying gmin =   1.0000E-08 Warning: Further gmin increment
Trying gmin =   5.6234E-08 Note: One successful gmin step
Trying gmin =   2.3714E-08 Warning: Further gmin increment
Trying gmin =   4.5316E-08 Note: One successful gmin step
Trying gmin =   3.2781E-08 Note: One successful gmin step
Trying gmin =   2.0169E-08 Note: One successful gmin step
Trying gmin =   9.7338E-09 Note: One successful gmin step
Trying gmin =   3.2634E-09 Note: One successful gmin step
Trying gmin =   6.3352E-10 Note: One successful gmin step
Trying gmin =   6.3352E-11 Note: One successful gmin step
Trying gmin =   6.3352E-12 Note: One successful gmin step
Trying gmin =   1.0000E-12 Note: One successful gmin step
Note: True gmin stepping completed
 Reference value :  1.48000e+00Note: Starting true gmin stepping
Trying gmin =   1.0000E-03 Note: One successful gmin step
Trying gmin =   1.0000E-04 Note: One successful gmin step
Trying gmin =   1.0000E-05 Note: One successful gmin step
Trying gmin =   1.0000E-06 Note: One successful gmin step
Trying gmin =   1.0000E-07 Note: One successful gmin step
Trying gmin =   1.0000E-08 Warning: Further gmin increment
Trying gmin =   5.6234E-08 Note: One successful gmin step
Trying gmin =   3.1623E-08 Note: One successful gmin step
Trying gmin =   1.7783E-08 Note: One successful gmin step
Trying gmin =   7.4989E-09 Note: One successful gmin step
Trying gmin =   2.0535E-09 Note: One successful gmin step
Trying gmin =   2.9427E-10 Note: One successful gmin step
Trying gmin =   2.9427E-11 Note: One successful gmin step
Trying gmin =   2.9427E-12 Note: One successful gmin step
Trying gmin =   1.0000E-12 Note: One successful gmin step
Note: True gmin stepping completed
pm                  =  6.355890e+01
Doing analysis at TEMP = 27.000000 and TNOM = 27.000000


No. of Data Rows : 91
psrr100             =  -7.141173e+01
psrr100k            =  -2.625193e+01
Doing analysis at TEMP = 27.000000 and TNOM = 27.000000


No. of Data Rows : 86
temp_coeff = 6.329954e+01
Doing analysis at TEMP = 27.000000 and TNOM = 27.000000


No. of Data Rows : 141
vldo_sup_2          =  1.806954e+00
vldo_sup_2_8        =  1.806920e+00
line_reg = 4.250000e-05
Note: No ".plot", ".print", or ".fourier" lines; no simulations run
vin                 =  1.764162e+00
dropout = 1.620000e-04
