 Reference value :  0.00000e+00
No compatibility mode selected!


Circuit: * ldo netlist 

Doing analysis at TEMP = 0.000000 and TNOM = 27.000000


No. of Data Rows : 1
bg_out = 6.071764e-01
inn = 8.219703e-01
inp = 8.216749e-01
l1#branch = -1.38778e-17
ldo_out = 9.168004e-01
m.xm1.msky130_fd_pr__nfet_g5v0d10v5#body = 1.354410e-11
m.xm1.msky130_fd_pr__nfet_g5v0d10v5#dbody = 3.245876e-11
m.xm1.msky130_fd_pr__nfet_g5v0d10v5#sbody = 8.173552e-12
m.xm2.msky130_fd_pr__pfet_g5v0d10v5#body = 2.300000e+00
m.xm2.msky130_fd_pr__pfet_g5v0d10v5#dbody = 2.300000e+00
m.xm2.msky130_fd_pr__pfet_g5v0d10v5#sbody = 2.300000e+00
m.xm3.msky130_fd_pr__pfet_g5v0d10v5#body = 2.300000e+00
m.xm3.msky130_fd_pr__pfet_g5v0d10v5#dbody = 2.300000e+00
m.xm3.msky130_fd_pr__pfet_g5v0d10v5#sbody = 2.300000e+00
m.xm4.msky130_fd_pr__pfet_g5v0d10v5#body = 2.300000e+00
m.xm4.msky130_fd_pr__pfet_g5v0d10v5#dbody = 2.300000e+00
m.xm4.msky130_fd_pr__pfet_g5v0d10v5#sbody = 2.300000e+00
m.xm5.msky130_fd_pr__pfet_g5v0d10v5#body = 2.300000e+00
m.xm5.msky130_fd_pr__pfet_g5v0d10v5#dbody = 2.300000e+00
m.xm5.msky130_fd_pr__pfet_g5v0d10v5#sbody = 2.300000e+00
m.xm6.msky130_fd_pr__nfet_g5v0d10v5#body = 1.077962e-11
m.xm6.msky130_fd_pr__nfet_g5v0d10v5#dbody = 2.694905e-11
m.xm6.msky130_fd_pr__nfet_g5v0d10v5#sbody = 5.389812e-12
m.xm7.msky130_fd_pr__pfet_g5v0d10v5#body = 2.300000e+00
m.xm7.msky130_fd_pr__pfet_g5v0d10v5#dbody = 2.300000e+00
m.xm7.msky130_fd_pr__pfet_g5v0d10v5#sbody = 2.300000e+00
m.xm8.msky130_fd_pr__pfet_g5v0d10v5#body = 2.300000e+00
m.xm8.msky130_fd_pr__pfet_g5v0d10v5#dbody = 2.300000e+00
m.xm8.msky130_fd_pr__pfet_g5v0d10v5#sbody = 2.300000e+00
m.xm9.msky130_fd_pr__nfet_g5v0d10v5#body = 1.593491e-11
m.xm9.msky130_fd_pr__nfet_g5v0d10v5#dbody = 3.977968e-11
m.xm9.msky130_fd_pr__nfet_g5v0d10v5#sbody = 8.025028e-12
m.xm10.msky130_fd_pr__nfet_g5v0d10v5#body = 1.354485e-11
m.xm10.msky130_fd_pr__nfet_g5v0d10v5#dbody = 3.380456e-11
m.xm10.msky130_fd_pr__nfet_g5v0d10v5#sbody = 6.830000e-12
m.xm11.msky130_fd_pr__pfet_g5v0d10v5#body = 2.300000e+00
m.xm11.msky130_fd_pr__pfet_g5v0d10v5#dbody = 2.300000e+00
m.xm11.msky130_fd_pr__pfet_g5v0d10v5#sbody = 2.300000e+00
m.xm12.msky130_fd_pr__pfet_g5v0d10v5#body = 2.300000e+00
m.xm12.msky130_fd_pr__pfet_g5v0d10v5#dbody = 2.300000e+00
m.xm12.msky130_fd_pr__pfet_g5v0d10v5#sbody = 2.300000e+00
m.xm13.msky130_fd_pr__nfet_g5v0d10v5#body = 2.878544e-14
m.xm13.msky130_fd_pr__nfet_g5v0d10v5#dbody = 7.196341e-14
m.xm13.msky130_fd_pr__nfet_g5v0d10v5#sbody = 1.439290e-14
m.xm14.msky130_fd_pr__pfet_g5v0d10v5#body = 2.300000e+00
m.xm14.msky130_fd_pr__pfet_g5v0d10v5#dbody = 2.300000e+00
m.xm14.msky130_fd_pr__pfet_g5v0d10v5#sbody = 2.300000e+00
m.xm15.msky130_fd_pr__nfet_g5v0d10v5#body = 5.592402e-13
m.xm15.msky130_fd_pr__nfet_g5v0d10v5#dbody = 1.398100e-12
m.xm15.msky130_fd_pr__nfet_g5v0d10v5#sbody = 2.796202e-13
m.xm16.msky130_fd_pr__nfet_g5v0d10v5#body = 3.902475e-11
m.xm16.msky130_fd_pr__nfet_g5v0d10v5#dbody = 7.701249e-11
m.xm16.msky130_fd_pr__nfet_g5v0d10v5#sbody = 4.006175e-11
m.xm17.msky130_fd_pr__pfet_g5v0d10v5#body = 2.300000e+00
m.xm17.msky130_fd_pr__pfet_g5v0d10v5#dbody = 2.300000e+00
m.xm17.msky130_fd_pr__pfet_g5v0d10v5#sbody = 2.300000e+00
m.xm18.msky130_fd_pr__nfet_g5v0d10v5#body = 1.416828e-11
m.xm18.msky130_fd_pr__nfet_g5v0d10v5#dbody = 3.542069e-11
m.xm18.msky130_fd_pr__nfet_g5v0d10v5#sbody = 7.084147e-12
m.xm19.msky130_fd_pr__nfet_g5v0d10v5#body = 1.402964e-11
m.xm19.msky130_fd_pr__nfet_g5v0d10v5#dbody = 3.367260e-11
m.xm19.msky130_fd_pr__nfet_g5v0d10v5#sbody = 8.416320e-12
m.xm20.msky130_fd_pr__nfet_g5v0d10v5#body = 1.072942e-11
m.xm20.msky130_fd_pr__nfet_g5v0d10v5#dbody = 2.682353e-11
m.xm20.msky130_fd_pr__nfet_g5v0d10v5#sbody = 5.364714e-12
m.xm22.msky130_fd_pr__nfet_g5v0d10v5#body = 7.007827e-13
m.xm22.msky130_fd_pr__nfet_g5v0d10v5#dbody = 1.751955e-12
m.xm22.msky130_fd_pr__nfet_g5v0d10v5#sbody = 3.503929e-13
m.xm24.msky130_fd_pr__pfet_g5v0d10v5#body = 2.300000e+00
m.xm24.msky130_fd_pr__pfet_g5v0d10v5#dbody = 2.300000e+00
m.xm24.msky130_fd_pr__pfet_g5v0d10v5#sbody = 2.300000e+00
m.xm26.msky130_fd_pr__pfet_g5v0d10v5#body = 2.300000e+00
m.xm26.msky130_fd_pr__pfet_g5v0d10v5#dbody = 2.300000e+00
m.xm26.msky130_fd_pr__pfet_g5v0d10v5#sbody = 2.300000e+00
mir = 1.027464e+00
net1 = 6.003111e-01
net2 = 4.472676e-02
net3 = 6.006618e-01
net4 = 5.605581e-02
net5 = 1.066306e+00
net6 = 8.623619e-01
net7 = 6.003630e-01
net8 = 1.081282e+00
net9 = 1.272486e+00
net10 = 2.302684e-03
net11 = 1.133461e+00
net12 = 1.133461e+00
net13 = 0.000000e+00
out = 1.133461e+00
pos = 6.094181e-01
q.xq2.qsky130_fd_pr__pnp_05v5_w0p68l0p68#collcx = 2.263494e-07
q.xq3.qsky130_fd_pr__pnp_05v5_w0p68l0p68#collcx = 2.231108e-07
q.xq4.qsky130_fd_pr__pnp_05v5_w0p68l0p68#collcx = 2.231108e-07
q.xq8.qsky130_fd_pr__pnp_05v5_w0p68l0p68#collcx = 2.231108e-07
q.xq10.qsky130_fd_pr__pnp_05v5_w0p68l0p68#collcx = 2.231108e-07
q.xq12.qsky130_fd_pr__pnp_05v5_w0p68l0p68#collcx = 2.231108e-07
q.xq14.qsky130_fd_pr__pnp_05v5_w0p68l0p68#collcx = 2.231108e-07
q.xq16.qsky130_fd_pr__pnp_05v5_w0p68l0p68#collcx = 2.231108e-07
q.xq18.qsky130_fd_pr__pnp_05v5_w0p68l0p68#collcx = 2.231108e-07
vb = 8.583515e-01
vdd = 2.300000e+00
vs#branch = -5.15004e-03
vt#branch = 0.000000e+00
xc1.a = 0.000000e+00
xc1.b1 = 0.000000e+00
xc3.a = 1.133461e+00
xc3.b1 = 1.133461e+00
xr1.xsky130_fd_pr__res_xhigh_po_0p69.ra = 6.017481e-01
xr2.xsky130_fd_pr__res_xhigh_po_0p69.ra = 6.020470e-01
xr3.xsky130_fd_pr__res_xhigh_po_0p69.ra = 1.418559e-03
xr4.xsky130_fd_pr__res_xhigh_po_0p69.ra = 6.003119e-01
xr5.xsky130_fd_pr__res_xhigh_po_0p69.ra = 1.417819e-03
xr6.xsky130_fd_pr__res_xhigh_po_0p69.ra = 1.434691e-03
xr7.xsky130_fd_pr__res_xhigh_po_0p69.ra = 1.133461e+00
xr8.xsky130_fd_pr__res_xhigh_po_0p69.ra = 6.118772e-01
xr9.xsky130_fd_pr__res_xhigh_po_0p69.ra = 2.510581e-03
Doing analysis at TEMP = 0.000000 and TNOM = 27.000000


No. of Data Rows : 91
Note: Starting true gmin stepping
Trying gmin =   1.0000E-03 Note: One successful gmin step
Trying gmin =   1.0000E-04 Note: One successful gmin step
Trying gmin =   1.0000E-05 Note: One successful gmin step
Trying gmin =   1.0000E-06 Note: One successful gmin step
Trying gmin =   1.0000E-07 Note: One successful gmin step
Trying gmin =   1.0000E-08 Warning: Further gmin increment
Trying gmin =   5.6234E-08 Note: One successful gmin step
Trying gmin =   2.3714E-08 Note: One successful gmin step
Trying gmin =   6.4938E-09 Warning: Further gmin increment
Trying gmin =   1.7154E-08 Warning: Further gmin increment
Trying gmin =   2.1870E-08 Note: One successful gmin step
Trying gmin =   1.9369E-08 Note: One successful gmin step
Trying gmin =   1.6144E-08 Warning: Further gmin increment
Trying gmin =   1.8507E-08 Note: One successful gmin step
Trying gmin =   1.7285E-08 Note: One successful gmin step
Trying gmin =   1.5602E-08 Note: One successful gmin step
Trying gmin =   1.3379E-08 Note: One successful gmin step
Trying gmin =   1.0625E-08 Note: One successful gmin step
Trying gmin =   7.5189E-09 Note: One successful gmin step
Trying gmin =   4.4761E-09 Note: One successful gmin step
Trying gmin =   2.0560E-09 Note: One successful gmin step
Trying gmin =   6.4002E-10 Note: One successful gmin step
Trying gmin =   1.1116E-10 Note: One successful gmin step
Trying gmin =   1.1116E-11 Note: One successful gmin step
Trying gmin =   1.1116E-12 Note: One successful gmin step
Trying gmin =   1.0000E-12 Note: One successful gmin step
Note: True gmin stepping completed
 Reference value :  1.44000e+00Note: Starting true gmin stepping
Trying gmin =   1.0000E-03 Note: One successful gmin step
Trying gmin =   1.0000E-04 Note: One successful gmin step
Trying gmin =   1.0000E-05 Note: One successful gmin step
Trying gmin =   1.0000E-06 Note: One successful gmin step
Trying gmin =   1.0000E-07 Note: One successful gmin step
Trying gmin =   1.0000E-08 Warning: Further gmin increment
Trying gmin =   5.6234E-08 Note: One successful gmin step
Trying gmin =   2.3714E-08 Note: One successful gmin step
Trying gmin =   6.4938E-09 Warning: Further gmin increment
Trying gmin =   1.7154E-08 Note: One successful gmin step
Trying gmin =   1.0554E-08 Warning: Further gmin increment
Trying gmin =   1.5193E-08 Warning: Further gmin increment
Trying gmin =   1.6641E-08 Note: One successful gmin step
Trying gmin =   1.5901E-08 Note: One successful gmin step
Trying gmin =   1.4851E-08 Note: One successful gmin step
Trying gmin =   1.3405E-08 Note: One successful gmin step
Trying gmin =   1.1495E-08 Note: One successful gmin step
Trying gmin =   9.1286E-09 Note: One successful gmin step
Trying gmin =   6.4600E-09 Note: One successful gmin step
Trying gmin =   3.8457E-09 Note: One successful gmin step
Trying gmin =   1.7664E-09 Note: One successful gmin step
Trying gmin =   5.4989E-10 Note: One successful gmin step
Trying gmin =   9.5509E-11 Note: One successful gmin step
Trying gmin =   9.5509E-12 Note: One successful gmin step
Trying gmin =   1.0000E-12 Note: One successful gmin step
Note: True gmin stepping completed
 Reference value :  6.00000e-01Note: Starting true gmin stepping
Trying gmin =   1.0000E-03 Note: One successful gmin step
Trying gmin =   1.0000E-04 Note: One successful gmin step
Trying gmin =   1.0000E-05 Note: One successful gmin step
Trying gmin =   1.0000E-06 Note: One successful gmin step
Trying gmin =   1.0000E-07 Note: One successful gmin step
Trying gmin =   1.0000E-08 Note: One successful gmin step
Trying gmin =   1.0000E-09 Note: One successful gmin step
Trying gmin =   1.0000E-10 Note: One successful gmin step
Trying gmin =   1.0000E-11 Note: One successful gmin step
Trying gmin =   1.0000E-12 Warning: Further gmin increment
Trying gmin =   5.6234E-12 Note: One successful gmin step
Trying gmin =   2.3714E-12 Note: One successful gmin step
Trying gmin =   1.0000E-12 Warning: Further gmin increment
Trying gmin =   1.9110E-12 Note: One successful gmin step
Trying gmin =   1.3824E-12 Note: One successful gmin step
Trying gmin =   1.0000E-12 Warning: Further gmin increment
Trying gmin =   1.2749E-12 Note: One successful gmin step
Trying gmin =   1.1291E-12 Note: One successful gmin step
Trying gmin =   1.0000E-12 Note: One successful gmin step
Warning: True gmin stepping failed
Note: Starting dynamic gmin stepping
Trying gmin =   1.0000E-03 Note: One successful gmin step
Trying gmin =   1.0000E-04 Note: One successful gmin step
Trying gmin =   1.0000E-05 Note: One successful gmin step
Trying gmin =   1.0000E-06 Note: One successful gmin step
Trying gmin =   1.0000E-07 Note: One successful gmin step
Trying gmin =   1.0000E-08 Note: One successful gmin step
Trying gmin =   1.0000E-09 Note: One successful gmin step
Trying gmin =   1.0000E-10 Note: One successful gmin step
Trying gmin =   1.0000E-11 Note: One successful gmin step
Trying gmin =   1.0000E-12 Note: One successful gmin step
Trying gmin =   1.0000E-12 Note: One successful gmin step
Note: Dynamic gmin stepping completed
pm                  =  9.273773e+01
Doing analysis at TEMP = 0.000000 and TNOM = 27.000000


No. of Data Rows : 91
psrr100             =  -3.370889e+01
psrr100k            =  -4.064029e+00
Doing analysis at TEMP = 0.000000 and TNOM = 27.000000


No. of Data Rows : 86
temp_coeff = 1.722792e+02
Doing analysis at TEMP = 0.000000 and TNOM = 27.000000


No. of Data Rows : 141
vldo_sup_2          =  9.246485e-01
vldo_sup_2_8        =  9.088964e-01
line_reg = 1.969012e-02
Error(parse.c--checkvalid): vin: zero length vector.
Error: RHS "vin-1.764" invalid
Error(parse.c--checkvalid): dropout: zero length vector.
Error: no such vector dropout
Note: No ".plot", ".print", or ".fourier" lines; no simulations run

Error: measure  vin  (WHEN) : out of interval
 meas dc vin when v(ldo_out)=1.764 failed!

