 Reference value :  0.00000e+00
No compatibility mode selected!


Circuit: * ldo netlist 

Doing analysis at TEMP = 27.000000 and TNOM = 27.000000


No. of Data Rows : 1
bg_out = 1.194137e+00
inn = 1.224885e+00
inp = 1.224859e+00
l1#branch = -2.77556e-17
ldo_out = 1.796244e+00
m.xm1.msky130_fd_pr__nfet_g5v0d10v5#body = 1.716740e-11
m.xm1.msky130_fd_pr__nfet_g5v0d10v5#dbody = 3.567587e-11
m.xm1.msky130_fd_pr__nfet_g5v0d10v5#sbody = 1.582634e-11
m.xm2.msky130_fd_pr__pfet_g5v0d10v5#body = 2.300000e+00
m.xm2.msky130_fd_pr__pfet_g5v0d10v5#dbody = 2.300000e+00
m.xm2.msky130_fd_pr__pfet_g5v0d10v5#sbody = 2.300000e+00
m.xm3.msky130_fd_pr__pfet_g5v0d10v5#body = 2.300000e+00
m.xm3.msky130_fd_pr__pfet_g5v0d10v5#dbody = 2.300000e+00
m.xm3.msky130_fd_pr__pfet_g5v0d10v5#sbody = 2.300000e+00
m.xm4.msky130_fd_pr__pfet_g5v0d10v5#body = 2.300000e+00
m.xm4.msky130_fd_pr__pfet_g5v0d10v5#dbody = 2.300000e+00
m.xm4.msky130_fd_pr__pfet_g5v0d10v5#sbody = 2.300000e+00
m.xm5.msky130_fd_pr__pfet_g5v0d10v5#body = 2.300000e+00
m.xm5.msky130_fd_pr__pfet_g5v0d10v5#dbody = 2.300000e+00
m.xm5.msky130_fd_pr__pfet_g5v0d10v5#sbody = 2.300000e+00
m.xm6.msky130_fd_pr__nfet_g5v0d10v5#body = 1.176027e-11
m.xm6.msky130_fd_pr__nfet_g5v0d10v5#dbody = 2.940067e-11
m.xm6.msky130_fd_pr__nfet_g5v0d10v5#sbody = 5.880141e-12
m.xm7.msky130_fd_pr__pfet_g5v0d10v5#body = 2.300000e+00
m.xm7.msky130_fd_pr__pfet_g5v0d10v5#dbody = 2.300000e+00
m.xm7.msky130_fd_pr__pfet_g5v0d10v5#sbody = 2.300000e+00
m.xm8.msky130_fd_pr__pfet_g5v0d10v5#body = 2.300000e+00
m.xm8.msky130_fd_pr__pfet_g5v0d10v5#dbody = 2.300000e+00
m.xm8.msky130_fd_pr__pfet_g5v0d10v5#sbody = 2.300000e+00
m.xm9.msky130_fd_pr__nfet_g5v0d10v5#body = 1.781474e-11
m.xm9.msky130_fd_pr__nfet_g5v0d10v5#dbody = 3.820608e-11
m.xm9.msky130_fd_pr__nfet_g5v0d10v5#sbody = 1.523815e-11
m.xm10.msky130_fd_pr__nfet_g5v0d10v5#body = 1.763948e-11
m.xm10.msky130_fd_pr__nfet_g5v0d10v5#dbody = 3.776793e-11
m.xm10.msky130_fd_pr__nfet_g5v0d10v5#sbody = 1.515052e-11
m.xm11.msky130_fd_pr__pfet_g5v0d10v5#body = 2.300000e+00
m.xm11.msky130_fd_pr__pfet_g5v0d10v5#dbody = 2.300000e+00
m.xm11.msky130_fd_pr__pfet_g5v0d10v5#sbody = 2.300000e+00
m.xm12.msky130_fd_pr__pfet_g5v0d10v5#body = 2.300000e+00
m.xm12.msky130_fd_pr__pfet_g5v0d10v5#dbody = 2.300000e+00
m.xm12.msky130_fd_pr__pfet_g5v0d10v5#sbody = 2.300000e+00
m.xm13.msky130_fd_pr__nfet_g5v0d10v5#body = 3.164030e-12
m.xm13.msky130_fd_pr__nfet_g5v0d10v5#dbody = 7.910064e-12
m.xm13.msky130_fd_pr__nfet_g5v0d10v5#sbody = 1.582026e-12
m.xm14.msky130_fd_pr__pfet_g5v0d10v5#body = 2.300000e+00
m.xm14.msky130_fd_pr__pfet_g5v0d10v5#dbody = 2.300000e+00
m.xm14.msky130_fd_pr__pfet_g5v0d10v5#sbody = 2.300000e+00
m.xm15.msky130_fd_pr__nfet_g5v0d10v5#body = 1.712922e-16
m.xm15.msky130_fd_pr__nfet_g5v0d10v5#dbody = 4.282190e-16
m.xm15.msky130_fd_pr__nfet_g5v0d10v5#sbody = 8.565750e-17
m.xm16.msky130_fd_pr__nfet_g5v0d10v5#body = 4.406975e-11
m.xm16.msky130_fd_pr__nfet_g5v0d10v5#dbody = 7.954357e-11
m.xm16.msky130_fd_pr__nfet_g5v0d10v5#sbody = 5.266569e-11
m.xm17.msky130_fd_pr__pfet_g5v0d10v5#body = 2.300000e+00
m.xm17.msky130_fd_pr__pfet_g5v0d10v5#dbody = 2.300000e+00
m.xm17.msky130_fd_pr__pfet_g5v0d10v5#sbody = 2.300000e+00
m.xm18.msky130_fd_pr__nfet_g5v0d10v5#body = 1.515248e-11
m.xm18.msky130_fd_pr__nfet_g5v0d10v5#dbody = 3.788118e-11
m.xm18.msky130_fd_pr__nfet_g5v0d10v5#sbody = 7.576253e-12
m.xm19.msky130_fd_pr__nfet_g5v0d10v5#body = 1.720614e-11
m.xm19.msky130_fd_pr__nfet_g5v0d10v5#dbody = 3.577272e-11
m.xm19.msky130_fd_pr__nfet_g5v0d10v5#sbody = 1.584571e-11
m.xm20.msky130_fd_pr__nfet_g5v0d10v5#body = 1.203216e-11
m.xm20.msky130_fd_pr__nfet_g5v0d10v5#dbody = 3.008039e-11
m.xm20.msky130_fd_pr__nfet_g5v0d10v5#sbody = 6.016094e-12
m.xm22.msky130_fd_pr__nfet_g5v0d10v5#body = 3.624031e-12
m.xm22.msky130_fd_pr__nfet_g5v0d10v5#dbody = 9.060073e-12
m.xm22.msky130_fd_pr__nfet_g5v0d10v5#sbody = 1.812020e-12
m.xm24.msky130_fd_pr__pfet_g5v0d10v5#body = 2.300000e+00
m.xm24.msky130_fd_pr__pfet_g5v0d10v5#dbody = 2.300000e+00
m.xm24.msky130_fd_pr__pfet_g5v0d10v5#sbody = 2.300000e+00
m.xm26.msky130_fd_pr__pfet_g5v0d10v5#body = 2.300000e+00
m.xm26.msky130_fd_pr__pfet_g5v0d10v5#dbody = 2.300000e+00
m.xm26.msky130_fd_pr__pfet_g5v0d10v5#sbody = 2.300000e+00
mir = 1.083339e+00
net1 = 7.262699e-01
net2 = 1.317963e-05
net3 = 7.859711e-01
net4 = 2.893577e-01
net5 = 1.086438e+00
net6 = 9.402569e-01
net7 = 7.859448e-01
net8 = 1.157689e+00
net9 = 1.171709e+00
net10 = 2.529919e-01
net11 = 1.212067e+00
net12 = 1.212067e+00
net13 = 0.000000e+00
out = 1.212067e+00
pos = 1.194276e+00
q.xq2.qsky130_fd_pr__pnp_05v5_w0p68l0p68#collcx = 2.182012e-03
q.xq3.qsky130_fd_pr__pnp_05v5_w0p68l0p68#collcx = 2.748729e-04
q.xq4.qsky130_fd_pr__pnp_05v5_w0p68l0p68#collcx = 2.748729e-04
q.xq8.qsky130_fd_pr__pnp_05v5_w0p68l0p68#collcx = 2.748729e-04
q.xq10.qsky130_fd_pr__pnp_05v5_w0p68l0p68#collcx = 2.748729e-04
q.xq12.qsky130_fd_pr__pnp_05v5_w0p68l0p68#collcx = 2.748729e-04
q.xq14.qsky130_fd_pr__pnp_05v5_w0p68l0p68#collcx = 2.748729e-04
q.xq16.qsky130_fd_pr__pnp_05v5_w0p68l0p68#collcx = 2.748729e-04
q.xq18.qsky130_fd_pr__pnp_05v5_w0p68l0p68#collcx = 2.748729e-04
vb = 9.624424e-01
vdd = 2.300000e+00
vs#branch = -1.01053e-02
vt#branch = 0.000000e+00
xc1.a = 0.000000e+00
xc1.b1 = 0.000000e+00
xc3.a = 1.212067e+00
xc3.b1 = 1.212067e+00
xr1.xsky130_fd_pr__res_xhigh_po_0p69.ra = 7.912706e-01
xr2.xsky130_fd_pr__res_xhigh_po_0p69.ra = 7.912969e-01
xr3.xsky130_fd_pr__res_xhigh_po_0p69.ra = 3.606119e-03
xr4.xsky130_fd_pr__res_xhigh_po_0p69.ra = 7.280592e-01
xr5.xsky130_fd_pr__res_xhigh_po_0p69.ra = 3.605991e-03
xr6.xsky130_fd_pr__res_xhigh_po_0p69.ra = 5.661482e-03
xr7.xsky130_fd_pr__res_xhigh_po_0p69.ra = 1.212067e+00
xr8.xsky130_fd_pr__res_xhigh_po_0p69.ra = 1.203691e+00
xr9.xsky130_fd_pr__res_xhigh_po_0p69.ra = 9.873746e-03
Doing analysis at TEMP = 27.000000 and TNOM = 27.000000


No. of Data Rows : 91
Note: Starting true gmin stepping
Trying gmin =   1.0000E-03 Note: One successful gmin step
Trying gmin =   1.0000E-04 Note: One successful gmin step
Trying gmin =   1.0000E-05 Note: One successful gmin step
Trying gmin =   1.0000E-06 Note: One successful gmin step
Trying gmin =   1.0000E-07 Note: One successful gmin step
Trying gmin =   1.0000E-08 Warning: Further gmin increment
Trying gmin =   5.6234E-08 Note: One successful gmin step
Trying gmin =   2.3714E-08 Note: One successful gmin step
Trying gmin =   6.4938E-09 Note: One successful gmin step
Trying gmin =   9.3057E-10 Warning: Further gmin increment
Trying gmin =   3.9954E-09 Note: One successful gmin step
Trying gmin =   1.9282E-09 Warning: Further gmin increment
Trying gmin =   3.3301E-09 Note: One successful gmin step
Trying gmin =   2.5340E-09 Note: One successful gmin step
Trying gmin =   1.6820E-09 Note: One successful gmin step
Trying gmin =   9.0962E-10 Warning: Further gmin increment
Trying gmin =   1.4424E-09 Note: One successful gmin step
Trying gmin =   1.1454E-09 Note: One successful gmin step
Trying gmin =   8.1060E-10 Note: One successful gmin step
Trying gmin =   4.8256E-10 Note: One successful gmin step
Trying gmin =   2.2165E-10 Note: One successful gmin step
Trying gmin =   6.9000E-11 Note: One successful gmin step
Trying gmin =   1.1984E-11 Note: One successful gmin step
Trying gmin =   1.1984E-12 Note: One successful gmin step
Trying gmin =   1.0000E-12 Note: One successful gmin step
Note: True gmin stepping completed
 Reference value :  1.26000e+00Note: Starting true gmin stepping
Trying gmin =   1.0000E-03 Note: One successful gmin step
Trying gmin =   1.0000E-04 Note: One successful gmin step
Trying gmin =   1.0000E-05 Note: One successful gmin step
Trying gmin =   1.0000E-06 Note: One successful gmin step
Trying gmin =   1.0000E-07 Note: One successful gmin step
Trying gmin =   1.0000E-08 Note: One successful gmin step
Trying gmin =   1.0000E-09 Warning: Further gmin increment
Trying gmin =   5.6234E-09 Note: One successful gmin step
Trying gmin =   2.3714E-09 Note: One successful gmin step
Trying gmin =   1.0000E-09 Note: One successful gmin step
Trying gmin =   2.7384E-10 Warning: Further gmin increment
Trying gmin =   7.2339E-10 Warning: Further gmin increment
Trying gmin =   9.2224E-10 Note: One successful gmin step
Trying gmin =   8.1679E-10 Note: One successful gmin step
Trying gmin =   7.6867E-10 Note: One successful gmin step
Trying gmin =   7.0176E-10 Note: One successful gmin step
Trying gmin =   6.1216E-10 Note: One successful gmin step
Trying gmin =   4.9874E-10 Note: One successful gmin step
Trying gmin =   3.6677E-10 Note: One successful gmin step
Trying gmin =   2.3130E-10 Note: One successful gmin step
Trying gmin =   1.1583E-10 Note: One successful gmin step
Trying gmin =   4.1051E-11 Note: One successful gmin step
Trying gmin =   8.6608E-12 Note: One successful gmin step
Trying gmin =   1.0000E-12 Note: One successful gmin step
Note: True gmin stepping completed
 Reference value :  6.20000e-01pm                  =  -9.866739e+01
Doing analysis at TEMP = 27.000000 and TNOM = 27.000000


No. of Data Rows : 91
psrr100             =  -8.364472e+01
psrr100k            =  -2.665264e+01
Doing analysis at TEMP = 27.000000 and TNOM = 27.000000


No. of Data Rows : 86
temp_coeff = 1.317136e+02
Doing analysis at TEMP = 27.000000 and TNOM = 27.000000


No. of Data Rows : 141
vldo_sup_2          =  -1.498411e+01
vldo_sup_2_8        =  -1.494904e+01
line_reg = 4.383750e-02
Error(parse.c--checkvalid): vin: zero length vector.
Error: RHS "vin-1.764" invalid
Error(parse.c--checkvalid): dropout: zero length vector.
Error: no such vector dropout
Note: No ".plot", ".print", or ".fourier" lines; no simulations run

Error: measure  vin  (WHEN) : out of interval
 meas dc vin when v(ldo_out)=1.764 failed!

