 Reference value :  0.00000e+00
No compatibility mode selected!


Circuit: * ldo netlist 

Doing analysis at TEMP = 27.000000 and TNOM = 27.000000


No. of Data Rows : 1
bg_out = 1.189141e+00
inn = 1.217348e+00
inp = 1.217344e+00
l1#branch = 0.000000e+00
ldo_out = 1.788761e+00
m.xm1.msky130_fd_pr__nfet_g5v0d10v5#body = 2.089434e-11
m.xm1.msky130_fd_pr__nfet_g5v0d10v5#dbody = 4.419528e-11
m.xm1.msky130_fd_pr__nfet_g5v0d10v5#sbody = 1.848773e-11
m.xm2.msky130_fd_pr__pfet_g5v0d10v5#body = 2.500000e+00
m.xm2.msky130_fd_pr__pfet_g5v0d10v5#dbody = 2.500000e+00
m.xm2.msky130_fd_pr__pfet_g5v0d10v5#sbody = 2.500000e+00
m.xm3.msky130_fd_pr__pfet_g5v0d10v5#body = 2.500000e+00
m.xm3.msky130_fd_pr__pfet_g5v0d10v5#dbody = 2.500000e+00
m.xm3.msky130_fd_pr__pfet_g5v0d10v5#sbody = 2.500000e+00
m.xm4.msky130_fd_pr__pfet_g5v0d10v5#body = 2.500000e+00
m.xm4.msky130_fd_pr__pfet_g5v0d10v5#dbody = 2.500000e+00
m.xm4.msky130_fd_pr__pfet_g5v0d10v5#sbody = 2.500000e+00
m.xm5.msky130_fd_pr__pfet_g5v0d10v5#body = 2.500000e+00
m.xm5.msky130_fd_pr__pfet_g5v0d10v5#dbody = 2.500000e+00
m.xm5.msky130_fd_pr__pfet_g5v0d10v5#sbody = 2.500000e+00
m.xm6.msky130_fd_pr__nfet_g5v0d10v5#body = 1.129109e-11
m.xm6.msky130_fd_pr__nfet_g5v0d10v5#dbody = 2.822772e-11
m.xm6.msky130_fd_pr__nfet_g5v0d10v5#sbody = 5.645550e-12
m.xm7.msky130_fd_pr__pfet_g5v0d10v5#body = 2.500000e+00
m.xm7.msky130_fd_pr__pfet_g5v0d10v5#dbody = 2.500000e+00
m.xm7.msky130_fd_pr__pfet_g5v0d10v5#sbody = 2.500000e+00
m.xm8.msky130_fd_pr__pfet_g5v0d10v5#body = 2.500000e+00
m.xm8.msky130_fd_pr__pfet_g5v0d10v5#dbody = 2.500000e+00
m.xm8.msky130_fd_pr__pfet_g5v0d10v5#sbody = 2.500000e+00
m.xm9.msky130_fd_pr__nfet_g5v0d10v5#body = 2.153158e-11
m.xm9.msky130_fd_pr__nfet_g5v0d10v5#dbody = 4.662525e-11
m.xm9.msky130_fd_pr__nfet_g5v0d10v5#sbody = 1.796948e-11
m.xm10.msky130_fd_pr__nfet_g5v0d10v5#body = 2.131022e-11
m.xm10.msky130_fd_pr__nfet_g5v0d10v5#dbody = 4.607185e-11
m.xm10.msky130_fd_pr__nfet_g5v0d10v5#sbody = 1.785880e-11
m.xm11.msky130_fd_pr__pfet_g5v0d10v5#body = 2.500000e+00
m.xm11.msky130_fd_pr__pfet_g5v0d10v5#dbody = 2.500000e+00
m.xm11.msky130_fd_pr__pfet_g5v0d10v5#sbody = 2.500000e+00
m.xm12.msky130_fd_pr__pfet_g5v0d10v5#body = 2.500000e+00
m.xm12.msky130_fd_pr__pfet_g5v0d10v5#dbody = 2.500000e+00
m.xm12.msky130_fd_pr__pfet_g5v0d10v5#sbody = 2.500000e+00
m.xm13.msky130_fd_pr__nfet_g5v0d10v5#body = 3.600486e-12
m.xm13.msky130_fd_pr__nfet_g5v0d10v5#dbody = 9.001203e-12
m.xm13.msky130_fd_pr__nfet_g5v0d10v5#sbody = 1.800254e-12
m.xm14.msky130_fd_pr__pfet_g5v0d10v5#body = 2.500000e+00
m.xm14.msky130_fd_pr__pfet_g5v0d10v5#dbody = 2.500000e+00
m.xm14.msky130_fd_pr__pfet_g5v0d10v5#sbody = 2.500000e+00
m.xm15.msky130_fd_pr__nfet_g5v0d10v5#body = 7.442804e-16
m.xm15.msky130_fd_pr__nfet_g5v0d10v5#dbody = 1.860636e-15
m.xm15.msky130_fd_pr__nfet_g5v0d10v5#sbody = 3.722057e-16
m.xm16.msky130_fd_pr__nfet_g5v0d10v5#body = 4.647550e-11
m.xm16.msky130_fd_pr__nfet_g5v0d10v5#dbody = 8.574640e-11
m.xm16.msky130_fd_pr__nfet_g5v0d10v5#sbody = 5.368009e-11
m.xm17.msky130_fd_pr__pfet_g5v0d10v5#body = 2.500000e+00
m.xm17.msky130_fd_pr__pfet_g5v0d10v5#dbody = 2.500000e+00
m.xm17.msky130_fd_pr__pfet_g5v0d10v5#sbody = 2.500000e+00
m.xm18.msky130_fd_pr__nfet_g5v0d10v5#body = 2.379507e-11
m.xm18.msky130_fd_pr__nfet_g5v0d10v5#dbody = 5.674793e-11
m.xm18.msky130_fd_pr__nfet_g5v0d10v5#sbody = 1.189755e-11
m.xm19.msky130_fd_pr__nfet_g5v0d10v5#body = 2.090081e-11
m.xm19.msky130_fd_pr__nfet_g5v0d10v5#dbody = 4.421145e-11
m.xm19.msky130_fd_pr__nfet_g5v0d10v5#sbody = 1.849096e-11
m.xm20.msky130_fd_pr__nfet_g5v0d10v5#body = 1.131157e-11
m.xm20.msky130_fd_pr__nfet_g5v0d10v5#dbody = 2.827891e-11
m.xm20.msky130_fd_pr__nfet_g5v0d10v5#sbody = 5.655796e-12
m.xm22.msky130_fd_pr__nfet_g5v0d10v5#body = 4.022993e-12
m.xm22.msky130_fd_pr__nfet_g5v0d10v5#dbody = 1.005748e-11
m.xm22.msky130_fd_pr__nfet_g5v0d10v5#sbody = 2.011501e-12
m.xm24.msky130_fd_pr__pfet_g5v0d10v5#body = 2.500000e+00
m.xm24.msky130_fd_pr__pfet_g5v0d10v5#dbody = 2.500000e+00
m.xm24.msky130_fd_pr__pfet_g5v0d10v5#sbody = 2.500000e+00
m.xm26.msky130_fd_pr__pfet_g5v0d10v5#body = 2.500000e+00
m.xm26.msky130_fd_pr__pfet_g5v0d10v5#dbody = 2.500000e+00
m.xm26.msky130_fd_pr__pfet_g5v0d10v5#sbody = 2.500000e+00
mir = 1.349579e+00
net1 = 7.203696e-01
net2 = 5.727182e-05
net3 = 7.801922e-01
net4 = 3.212764e-01
net5 = 1.350096e+00
net6 = 9.027241e-01
net7 = 7.801883e-01
net8 = 1.416432e+00
net9 = 1.434141e+00
net10 = 2.879100e-01
net11 = 1.793888e+00
net12 = 1.793888e+00
net13 = 0.000000e+00
out = 1.793888e+00
pos = 1.189302e+00
q.xq2.qsky130_fd_pr__pnp_05v5_w0p68l0p68#collcx = 2.241072e-03
q.xq3.qsky130_fd_pr__pnp_05v5_w0p68l0p68#collcx = 2.815703e-04
q.xq4.qsky130_fd_pr__pnp_05v5_w0p68l0p68#collcx = 2.815703e-04
q.xq8.qsky130_fd_pr__pnp_05v5_w0p68l0p68#collcx = 2.815703e-04
q.xq10.qsky130_fd_pr__pnp_05v5_w0p68l0p68#collcx = 2.815703e-04
q.xq12.qsky130_fd_pr__pnp_05v5_w0p68l0p68#collcx = 2.815703e-04
q.xq14.qsky130_fd_pr__pnp_05v5_w0p68l0p68#collcx = 2.815703e-04
q.xq16.qsky130_fd_pr__pnp_05v5_w0p68l0p68#collcx = 2.815703e-04
q.xq18.qsky130_fd_pr__pnp_05v5_w0p68l0p68#collcx = 2.815703e-04
vb = 9.047965e-01
vdd = 2.500000e+00
vs#branch = -1.77143e-04
vt#branch = 0.000000e+00
xc1.a = 0.000000e+00
xc1.b1 = 0.000000e+00
xc3.a = 1.793888e+00
xc3.b1 = 1.793888e+00
xr1.xsky130_fd_pr__res_xhigh_po_0p69.ra = 7.854921e-01
xr2.xsky130_fd_pr__res_xhigh_po_0p69.ra = 7.854960e-01
xr3.xsky130_fd_pr__res_xhigh_po_0p69.ra = 3.577879e-03
xr4.xsky130_fd_pr__res_xhigh_po_0p69.ra = 7.221632e-01
xr5.xsky130_fd_pr__res_xhigh_po_0p69.ra = 3.577860e-03
xr6.xsky130_fd_pr__res_xhigh_po_0p69.ra = 5.635691e-03
xr7.xsky130_fd_pr__res_xhigh_po_0p69.ra = 1.793888e+00
xr8.xsky130_fd_pr__res_xhigh_po_0p69.ra = 1.198676e+00
xr9.xsky130_fd_pr__res_xhigh_po_0p69.ra = 9.828979e-03
Doing analysis at TEMP = 27.000000 and TNOM = 27.000000


No. of Data Rows : 91
Note: Starting true gmin stepping
Trying gmin =   1.0000E-03 Note: One successful gmin step
Trying gmin =   1.0000E-04 Note: One successful gmin step
Trying gmin =   1.0000E-05 Note: One successful gmin step
Trying gmin =   1.0000E-06 Note: One successful gmin step
Trying gmin =   1.0000E-07 Note: One successful gmin step
Trying gmin =   1.0000E-08 Warning: Further gmin increment
Trying gmin =   5.6234E-08 Note: One successful gmin step
Trying gmin =   2.3714E-08 Warning: Further gmin increment
Trying gmin =   4.5316E-08 Note: One successful gmin step
Trying gmin =   3.2781E-08 Warning: Further gmin increment
Trying gmin =   4.1792E-08 Warning: Further gmin increment
Trying gmin =   4.4408E-08 Note: One successful gmin step
Trying gmin =   4.3080E-08 Note: One successful gmin step
Trying gmin =   4.1163E-08 Warning: Further gmin increment
Trying gmin =   4.2593E-08 Note: One successful gmin step
Trying gmin =   4.2351E-08 Note: One successful gmin step
Trying gmin =   4.1991E-08 Note: One successful gmin step
Trying gmin =   4.1456E-08 Note: One successful gmin step
Trying gmin =   4.0668E-08 Note: One successful gmin step
Trying gmin =   3.9513E-08 Note: One successful gmin step
Trying gmin =   3.7841E-08 Note: One successful gmin step
Trying gmin =   3.5466E-08 Note: One successful gmin step
Trying gmin =   3.2179E-08 Warning: Further gmin increment
Trying gmin =   3.4614E-08 Note: One successful gmin step
Trying gmin =   3.3374E-08 Note: One successful gmin step
Trying gmin =   3.1598E-08 Warning: Further gmin increment
Trying gmin =   3.2921E-08 Note: One successful gmin step
Trying gmin =   3.2252E-08 Warning: Further gmin increment
Trying gmin =   3.2752E-08 Note: One successful gmin step
Trying gmin =   3.2501E-08 Note: One successful gmin step
Trying gmin =   3.2129E-08 Warning: Further gmin increment
Trying gmin =   3.2408E-08 Note: One successful gmin step
Trying gmin =   3.2268E-08 Warning: Further gmin increment
Trying gmin =   3.2373E-08 Note: One successful gmin step
Trying gmin =   3.2320E-08 Note: One successful gmin step
Trying gmin =   3.2242E-08 Warning: Further gmin increment
Trying gmin =   3.2301E-08 Warning: Further gmin increment
Trying gmin =   3.2315E-08 Note: One successful gmin step
Trying gmin =   3.2308E-08 Note: One successful gmin step
Trying gmin =   3.2297E-08 Warning: Further gmin increment
Trying gmin =   3.2305E-08 Warning: Further gmin increment
Trying gmin =   3.2307E-08 Note: One successful gmin step
Trying gmin =   3.2306E-08 Warning: Last gmin step failed
Warning: True gmin stepping failed
Note: Starting dynamic gmin stepping
Trying gmin =   1.0000E-03 Note: One successful gmin step
Trying gmin =   1.0000E-04 Note: One successful gmin step
Trying gmin =   1.0000E-05 Warning: Further gmin increment
Trying gmin =   5.6234E-05 Note: One successful gmin step
Trying gmin =   2.3714E-05 Note: One successful gmin step
Trying gmin =   6.4938E-06 Warning: Further gmin increment
Trying gmin =   1.7154E-05 Note: One successful gmin step
Trying gmin =   1.0554E-05 Note: One successful gmin step
Trying gmin =   6.4938E-06 Note: One successful gmin step
Trying gmin =   3.1340E-06 Note: One successful gmin step
Trying gmin =   1.5125E-06 Warning: Further gmin increment
Trying gmin =   2.6121E-06 Note: One successful gmin step
Trying gmin =   1.9876E-06 Note: One successful gmin step
Trying gmin =   1.3194E-06 Warning: Further gmin increment
Trying gmin =   1.7941E-06 Warning: Further gmin increment
Trying gmin =   1.9374E-06 Note: One successful gmin step
Trying gmin =   1.8644E-06 Note: One successful gmin step
Trying gmin =   1.7600E-06 Warning: Further gmin increment
Trying gmin =   1.8377E-06 Warning: Further gmin increment
Trying gmin =   1.8577E-06 Warning: Further gmin increment
Trying gmin =   1.8627E-06 Note: One successful gmin step
Trying gmin =   1.8602E-06 Note: One successful gmin step
Trying gmin =   1.8564E-06 Note: One successful gmin step
Trying gmin =   1.8508E-06 Note: One successful gmin step
Trying gmin =   1.8424E-06 Note: One successful gmin step
Trying gmin =   1.8298E-06 Note: One successful gmin step
Trying gmin =   1.8111E-06 Note: One successful gmin step
Trying gmin =   1.7835E-06 Note: One successful gmin step
Trying gmin =   1.7428E-06 Note: One successful gmin step
Trying gmin =   1.6835E-06 Note: One successful gmin step
Trying gmin =   1.5983E-06 Note: One successful gmin step
Trying gmin =   1.4785E-06 Note: One successful gmin step
Trying gmin =   1.3155E-06 Note: One successful gmin step
Trying gmin =   1.1040E-06 Note: One successful gmin step
Trying gmin =   8.4883E-07 Note: One successful gmin step
Trying gmin =   5.7224E-07 Note: One successful gmin step
Trying gmin =   3.1674E-07 Note: One successful gmin step
Trying gmin =   1.3044E-07 Note: One successful gmin step
Trying gmin =   3.4471E-08 Note: One successful gmin step
Trying gmin =   4.6830E-09 Note: One successful gmin step
Trying gmin =   4.6830E-10 Note: One successful gmin step
Trying gmin =   4.6830E-11 Note: One successful gmin step
Trying gmin =   4.6830E-12 Note: One successful gmin step
Trying gmin =   1.0000E-12 Note: One successful gmin step
Note: Dynamic gmin stepping completed
 Reference value :  2.80000e+00Note: Starting true gmin stepping
Trying gmin =   1.0000E-03 Note: One successful gmin step
Trying gmin =   1.0000E-04 Note: One successful gmin step
Trying gmin =   1.0000E-05 Note: One successful gmin step
Trying gmin =   1.0000E-06 Note: One successful gmin step
Trying gmin =   1.0000E-07 Warning: Further gmin increment
Trying gmin =   5.6234E-07 Note: One successful gmin step
Trying gmin =   2.3714E-07 Note: One successful gmin step
Trying gmin =   6.4938E-08 Note: One successful gmin step
Trying gmin =   1.7783E-08 Warning: Further gmin increment
Trying gmin =   4.6976E-08 Note: One successful gmin step
Trying gmin =   2.8903E-08 Note: One successful gmin step
Trying gmin =   1.3949E-08 Note: One successful gmin step
Trying gmin =   4.6765E-09 Warning: Further gmin increment
Trying gmin =   1.0614E-08 Note: One successful gmin step
Trying gmin =   7.0453E-09 Note: One successful gmin step
Trying gmin =   3.8101E-09 Note: One successful gmin step
Trying gmin =   1.5152E-09 Note: One successful gmin step
Trying gmin =   3.8002E-10 Note: One successful gmin step
Trying gmin =   4.7730E-11 Note: One successful gmin step
Trying gmin =   4.7730E-12 Note: One successful gmin step
Trying gmin =   1.0000E-12 Note: One successful gmin step
Note: True gmin stepping completed
 Reference value :  1.30000e+00Note: Starting true gmin stepping
Trying gmin =   1.0000E-03 Note: One successful gmin step
Trying gmin =   1.0000E-04 Note: One successful gmin step
Trying gmin =   1.0000E-05 Note: One successful gmin step
Trying gmin =   1.0000E-06 Note: One successful gmin step
Trying gmin =   1.0000E-07 Note: One successful gmin step
Trying gmin =   1.0000E-08 Warning: Further gmin increment
Trying gmin =   5.6234E-08 Note: One successful gmin step
Trying gmin =   2.3714E-08 Note: One successful gmin step
Trying gmin =   1.0000E-08 Note: One successful gmin step
Trying gmin =   2.7384E-09 Warning: Further gmin increment
Trying gmin =   7.2339E-09 Note: One successful gmin step
Trying gmin =   4.4508E-09 Note: One successful gmin step
Trying gmin =   2.1480E-09 Note: One successful gmin step
Trying gmin =   7.2015E-10 Note: One successful gmin step
Trying gmin =   1.3980E-10 Note: One successful gmin step
Trying gmin =   1.3980E-11 Note: One successful gmin step
Trying gmin =   1.3980E-12 Note: One successful gmin step
Trying gmin =   1.0000E-12 Note: One successful gmin step
Note: True gmin stepping completed
 Reference value :  6.00000e-02pm                  =  5.252541e+01
Doing analysis at TEMP = 27.000000 and TNOM = 27.000000


No. of Data Rows : 91
psrr100             =  -7.951736e+01
psrr100k            =  -2.702571e+01
Doing analysis at TEMP = 27.000000 and TNOM = 27.000000


No. of Data Rows : 86
temp_coeff = 1.172527e+02
Doing analysis at TEMP = 27.000000 and TNOM = 27.000000


No. of Data Rows : 141
vldo_sup_2          =  1.788847e+00
vldo_sup_2_8        =  1.788745e+00
line_reg = 1.275000e-04
Note: No ".plot", ".print", or ".fourier" lines; no simulations run
vin                 =  1.764105e+00
dropout = 1.050000e-04
