Note: Starting true gmin stepping
Trying gmin =   1.0000E-03 Note: One successful gmin step
Trying gmin =   1.0000E-04 Note: One successful gmin step
Trying gmin =   1.0000E-05 Note: One successful gmin step
Trying gmin =   1.0000E-06 Note: One successful gmin step
Trying gmin =   1.0000E-07 Note: One successful gmin step
Trying gmin =   1.0000E-08 Warning: Further gmin increment
Trying gmin =   5.6234E-08 Warning: Further gmin increment
Trying gmin =   8.6596E-08 Note: One successful gmin step
Trying gmin =   6.9783E-08 Warning: Further gmin increment
Trying gmin =   8.2047E-08 Note: One successful gmin step
Trying gmin =   7.5667E-08 Note: One successful gmin step
Trying gmin =   6.7015E-08 Warning: Further gmin increment
Trying gmin =   7.3404E-08 Note: One successful gmin step
Trying gmin =   7.0137E-08 Note: One successful gmin step
Trying gmin =   6.7015E-08 Note: One successful gmin step
Trying gmin =   6.2591E-08 Note: One successful gmin step
Trying gmin =   5.6496E-08 Note: One successful gmin step
Trying gmin =   4.8448E-08 Note: One successful gmin step
Trying gmin =   3.8473E-08 Note: One successful gmin step
Trying gmin =   2.7226E-08 Note: One successful gmin step
Trying gmin =   1.6208E-08 Note: One successful gmin step
Trying gmin =   7.4448E-09 Note: One successful gmin step
Trying gmin =   2.3176E-09 Note: One successful gmin step
Trying gmin =   4.0253E-10 Note: One successful gmin step
Trying gmin =   4.0253E-11 Note: One successful gmin step
Trying gmin =   4.0253E-12 Note: One successful gmin step
Trying gmin =   1.0000E-12 Note: One successful gmin step
Note: True gmin stepping completed
 Reference value :  0.00000e+00
No compatibility mode selected!


Circuit: * ldo netlist 

Doing analysis at TEMP = 0.000000 and TNOM = 27.000000


No. of Data Rows : 1
bg_out = 5.971490e-01
inn = 8.072470e-01
inp = 8.068932e-01
l1#branch = 0.000000e+00
ldo_out = 9.012516e-01
m.xm1.msky130_fd_pr__nfet_g5v0d10v5#body = 1.540780e-11
m.xm1.msky130_fd_pr__nfet_g5v0d10v5#dbody = 3.746270e-11
m.xm1.msky130_fd_pr__nfet_g5v0d10v5#sbody = 8.760703e-12
m.xm2.msky130_fd_pr__pfet_g5v0d10v5#body = 2.300000e+00
m.xm2.msky130_fd_pr__pfet_g5v0d10v5#dbody = 2.300000e+00
m.xm2.msky130_fd_pr__pfet_g5v0d10v5#sbody = 2.300000e+00
m.xm3.msky130_fd_pr__pfet_g5v0d10v5#body = 2.300000e+00
m.xm3.msky130_fd_pr__pfet_g5v0d10v5#dbody = 2.300000e+00
m.xm3.msky130_fd_pr__pfet_g5v0d10v5#sbody = 2.300000e+00
m.xm4.msky130_fd_pr__pfet_g5v0d10v5#body = 2.300000e+00
m.xm4.msky130_fd_pr__pfet_g5v0d10v5#dbody = 2.300000e+00
m.xm4.msky130_fd_pr__pfet_g5v0d10v5#sbody = 2.300000e+00
m.xm5.msky130_fd_pr__pfet_g5v0d10v5#body = 2.300000e+00
m.xm5.msky130_fd_pr__pfet_g5v0d10v5#dbody = 2.300000e+00
m.xm5.msky130_fd_pr__pfet_g5v0d10v5#sbody = 2.300000e+00
m.xm6.msky130_fd_pr__nfet_g5v0d10v5#body = 1.087445e-11
m.xm6.msky130_fd_pr__nfet_g5v0d10v5#dbody = 2.718613e-11
m.xm6.msky130_fd_pr__nfet_g5v0d10v5#sbody = 5.437230e-12
m.xm7.msky130_fd_pr__pfet_g5v0d10v5#body = 2.300000e+00
m.xm7.msky130_fd_pr__pfet_g5v0d10v5#dbody = 2.300000e+00
m.xm7.msky130_fd_pr__pfet_g5v0d10v5#sbody = 2.300000e+00
m.xm8.msky130_fd_pr__pfet_g5v0d10v5#body = 2.300000e+00
m.xm8.msky130_fd_pr__pfet_g5v0d10v5#dbody = 2.300000e+00
m.xm8.msky130_fd_pr__pfet_g5v0d10v5#sbody = 2.300000e+00
m.xm9.msky130_fd_pr__nfet_g5v0d10v5#body = 1.804264e-11
m.xm9.msky130_fd_pr__nfet_g5v0d10v5#dbody = 4.507178e-11
m.xm9.msky130_fd_pr__nfet_g5v0d10v5#sbody = 9.055862e-12
m.xm10.msky130_fd_pr__nfet_g5v0d10v5#body = 1.556020e-11
m.xm10.msky130_fd_pr__nfet_g5v0d10v5#dbody = 3.886596e-11
m.xm10.msky130_fd_pr__nfet_g5v0d10v5#sbody = 7.814644e-12
m.xm11.msky130_fd_pr__pfet_g5v0d10v5#body = 2.300000e+00
m.xm11.msky130_fd_pr__pfet_g5v0d10v5#dbody = 2.300000e+00
m.xm11.msky130_fd_pr__pfet_g5v0d10v5#sbody = 2.300000e+00
m.xm12.msky130_fd_pr__pfet_g5v0d10v5#body = 2.300000e+00
m.xm12.msky130_fd_pr__pfet_g5v0d10v5#dbody = 2.300000e+00
m.xm12.msky130_fd_pr__pfet_g5v0d10v5#sbody = 2.300000e+00
m.xm13.msky130_fd_pr__nfet_g5v0d10v5#body = 1.727018e-14
m.xm13.msky130_fd_pr__nfet_g5v0d10v5#dbody = 4.317535e-14
m.xm13.msky130_fd_pr__nfet_g5v0d10v5#sbody = 8.635200e-15
m.xm14.msky130_fd_pr__pfet_g5v0d10v5#body = 2.300000e+00
m.xm14.msky130_fd_pr__pfet_g5v0d10v5#dbody = 2.300000e+00
m.xm14.msky130_fd_pr__pfet_g5v0d10v5#sbody = 2.300000e+00
m.xm15.msky130_fd_pr__nfet_g5v0d10v5#body = 1.554234e-11
m.xm15.msky130_fd_pr__nfet_g5v0d10v5#dbody = 3.885582e-11
m.xm15.msky130_fd_pr__nfet_g5v0d10v5#sbody = 7.771172e-12
m.xm16.msky130_fd_pr__nfet_g5v0d10v5#body = 3.884071e-11
m.xm16.msky130_fd_pr__nfet_g5v0d10v5#dbody = 7.692047e-11
m.xm16.msky130_fd_pr__nfet_g5v0d10v5#sbody = 3.960165e-11
m.xm17.msky130_fd_pr__pfet_g5v0d10v5#body = 2.300000e+00
m.xm17.msky130_fd_pr__pfet_g5v0d10v5#dbody = 2.300000e+00
m.xm17.msky130_fd_pr__pfet_g5v0d10v5#sbody = 2.300000e+00
m.xm18.msky130_fd_pr__nfet_g5v0d10v5#body = 1.373739e-11
m.xm18.msky130_fd_pr__nfet_g5v0d10v5#dbody = 3.434348e-11
m.xm18.msky130_fd_pr__nfet_g5v0d10v5#sbody = 6.868703e-12
m.xm19.msky130_fd_pr__nfet_g5v0d10v5#body = 1.598088e-11
m.xm19.msky130_fd_pr__nfet_g5v0d10v5#dbody = 3.889537e-11
m.xm19.msky130_fd_pr__nfet_g5v0d10v5#sbody = 9.047243e-12
m.xm20.msky130_fd_pr__nfet_g5v0d10v5#body = 1.089224e-11
m.xm20.msky130_fd_pr__nfet_g5v0d10v5#dbody = 2.723060e-11
m.xm20.msky130_fd_pr__nfet_g5v0d10v5#sbody = 5.446127e-12
m.xm22.msky130_fd_pr__nfet_g5v0d10v5#body = 5.284303e-13
m.xm22.msky130_fd_pr__nfet_g5v0d10v5#dbody = 1.321074e-12
m.xm22.msky130_fd_pr__nfet_g5v0d10v5#sbody = 2.642163e-13
m.xm24.msky130_fd_pr__pfet_g5v0d10v5#body = 2.300000e+00
m.xm24.msky130_fd_pr__pfet_g5v0d10v5#dbody = 2.300000e+00
m.xm24.msky130_fd_pr__pfet_g5v0d10v5#sbody = 2.300000e+00
m.xm26.msky130_fd_pr__pfet_g5v0d10v5#body = 2.300000e+00
m.xm26.msky130Note: Starting true gmin stepping
Trying gmin =   1.0000E-03 Note: One successful gmin step
Trying gmin =   1.0000E-04 Note: One successful gmin step
Trying gmin =   1.0000E-05 Note: One successful gmin step
Trying gmin =   1.0000E-06 Note: One successful gmin step
Trying gmin =   1.0000E-07 Note: One successful gmin step
Trying gmin =   1.0000E-08 Warning: Further gmin increment
Trying gmin =   5.6234E-08 Warning: Further gmin increment
Trying gmin =   8.6596E-08 Note: One successful gmin step
Trying gmin =   6.9783E-08 Warning: Further gmin increment
Trying gmin =   8.2047E-08 Note: One successful gmin step
Trying gmin =   7.5667E-08 Note: One successful gmin step
Trying gmin =   6.7015E-08 Warning: Further gmin increment
Trying gmin =   7.3404E-08 Note: One successful gmin step
Trying gmin =   7.0137E-08 Note: One successful gmin step
Trying gmin =   6.7015E-08 Note: One successful gmin step
Trying gmin =   6.2591E-08 Note: One successful gmin step
Trying gmin =   5.6496E-08 Note: One successful gmin step
Trying gmin =   4.8448E-08 Note: One successful gmin step
Trying gmin =   3.8473E-08 Note: One successful gmin step
Trying gmin =   2.7226E-08 Note: One successful gmin step
Trying gmin =   1.6208E-08 Note: One successful gmin step
Trying gmin =   7.4448E-09 Note: One successful gmin step
Trying gmin =   2.3176E-09 Note: One successful gmin step
Trying gmin =   4.0253E-10 Note: One successful gmin step
Trying gmin =   4.0253E-11 Note: One successful gmin step
Trying gmin =   4.0253E-12 Note: One successful gmin step
Trying gmin =   1.0000E-12 Note: One successful gmin step
Note: True gmin stepping completed
_fd_pr__pfet_g5v0d10v5#dbody = 2.300000e+00
m.xm26.msky130_fd_pr__pfet_g5v0d10v5#sbody = 2.300000e+00
mir = 1.190347e+00
net1 = 5.899777e-01
net2 = 1.243371e+00
net3 = 5.903551e-01
net4 = 4.226821e-02
net5 = 1.236192e+00
net6 = 8.699487e-01
net7 = 5.900233e-01
net8 = 1.243431e+00
net9 = 1.442015e+00
net10 = 1.381522e-03
net11 = 1.098990e+00
net12 = 1.098990e+00
net13 = 0.000000e+00
out = 1.098990e+00
pos = 5.995462e-01
q.xq2.qsky130_fd_pr__pnp_05v5_w0p68l0p68#collcx = 1.892713e-07
q.xq3.qsky130_fd_pr__pnp_05v5_w0p68l0p68#collcx = 1.863589e-07
q.xq4.qsky130_fd_pr__pnp_05v5_w0p68l0p68#collcx = 1.863589e-07
q.xq8.qsky130_fd_pr__pnp_05v5_w0p68l0p68#collcx = 1.863589e-07
q.xq10.qsky130_fd_pr__pnp_05v5_w0p68l0p68#collcx = 1.863589e-07
q.xq12.qsky130_fd_pr__pnp_05v5_w0p68l0p68#collcx = 1.863589e-07
q.xq14.qsky130_fd_pr__pnp_05v5_w0p68l0p68#collcx = 1.863589e-07
q.xq16.qsky130_fd_pr__pnp_05v5_w0p68l0p68#collcx = 1.863589e-07
q.xq18.qsky130_fd_pr__pnp_05v5_w0p68l0p68#collcx = 1.863589e-07
vb = 8.713777e-01
vdd = 2.300000e+00
vs#branch = -5.01214e-02
vt#branch = 0.000000e+00
xc1.a = 0.000000e+00
xc1.b1 = 0.000000e+00
xc3.a = 1.098990e+00
xc3.b1 = 1.098990e+00
xr1.xsky130_fd_pr__res_xhigh_po_0p69.ra = 5.935721e-01
xr2.xsky130_fd_pr__res_xhigh_po_0p69.ra = 5.939043e-01
xr3.xsky130_fd_pr__res_xhigh_po_0p69.ra = 3.632559e-03
xr4.xsky130_fd_pr__res_xhigh_po_0p69.ra = 5.899796e-01
xr5.xsky130_fd_pr__res_xhigh_po_0p69.ra = 3.630422e-03
xr6.xsky130_fd_pr__res_xhigh_po_0p69.ra = 3.676343e-03
xr7.xsky130_fd_pr__res_xhigh_po_0p69.ra = 1.098990e+00
xr8.xsky130_fd_pr__res_xhigh_po_0p69.ra = 6.058607e-01
xr9.xsky130_fd_pr__res_xhigh_po_0p69.ra = 6.443658e-03
Doing analysis at TEMP = 0.000000 and TNOM = 27.000000


No. of Data Rows : 91
Note: Starting true gmin stepping
Trying gmin =   1.0000E-03 Note: One successful gmin step
Trying gmin =   1.0000E-04 Note: One successful gmin step
Trying gmin =   1.0000E-05 Note: One successful gmin step
Trying gmin =   1.0000E-06 Note: One successful gmin step
Trying gmin =   1.0000E-07 Note: One successful gmin step
Trying gmin =   1.0000E-08 Warning: Further gmin increment
Trying gmin =   5.6234E-08 Warning: Further gmin increment
Trying gmin =   8.6596E-08 Note: One successful gmin step
Trying gmin =   6.9783E-08 Warning: Further gmin increment
Trying gmin =   8.2047E-08 Note: One successful gmin step
Trying gmin =   7.5667E-08 Note: One successful gmin step
Trying gmin =   6.7015E-08 Warning: Further gmin increment
Trying gmin =   7.3404E-08 Note: One successful gmin step
Trying gmin =   7.0137E-08 Note: One successful gmin step
Trying gmin =   6.7015E-08 Note: One successful gmin step
Trying gmin =   6.2591E-08 Note: One successful gmin step
Trying gmin =   5.6496E-08 Note: One successful gmin step
Trying gmin =   4.8448E-08 Note: One successful gmin step
Trying gmin =   3.8473E-08 Note: One successful gmin step
Trying gmin =   2.7226E-08 Note: One successful gmin step
Trying gmin =   1.6208E-08 Note: One successful gmin step
Trying gmin =   7.4448E-09 Note: One successful gmin step
Trying gmin =   2.3176E-09 Note: One successful gmin step
Trying gmin =   4.0253E-10 Note: One successful gmin step
Trying gmin =   4.0253E-11 Note: One successful gmin step
Trying gmin =   4.0253E-12 Note: One successful gmin step
Trying gmin =   1.0000E-12 Note: One successful gmin step
Note: True gmin stepping completed
 Reference value :  1.00000e+00Note: Starting true gmin stepping
Trying gmin =   1.0000E-03 Note: One successful gmin step
Trying gmin =   1.0000E-04 Note: One successful gmin step
Trying gmin =   1.0000E-05 Note: One successful gmin step
Trying gmin =   1.0000E-06 Note: One successful gmin step
Trying gmin =   1.0000E-07 Note: One successful gmin step
Trying gmin =   1.0000E-08 Warning: Further gmin increment
Trying gmin =   5.6234E-08 Note: One successful gmin step
Trying gmin =   2.3714E-08 Warning: Further gmin increment
Trying gmin =   4.5316E-08 Note: One successful gmin step
Trying gmin =   3.2781E-08 Warning: Further gmin increment
Trying gmin =   4.1792E-08 Note: One successful gmin step
Trying gmin =   3.7013E-08 Note: One successful gmin step
Trying gmin =   3.0850E-08 Warning: Further gmin increment
Trying gmin =   3.5366E-08 Note: One successful gmin step
Trying gmin =   3.3031E-08 Warning: Further gmin increment
Trying gmin =   3.4767E-08 Note: One successful gmin step
Trying gmin =   3.3888E-08 Warning: Further gmin increment
Trying gmin =   3.4545E-08 Note: One successful gmin step
Trying gmin =   3.4215E-08 Warning: Further gmin increment
Trying gmin =   3.4462E-08 Warning: Further gmin increment
Trying gmin =   3.4524E-08 Note: One successful gmin step
Trying gmin =   3.4493E-08 Note: One successful gmin step
Trying gmin =   3.4447E-08 Warning: Further gmin increment
Trying gmin =   3.4482E-08 Note: One successful gmin step
Trying gmin =   3.4464E-08 Warning: Further gmin increment
Trying gmin =   3.4477E-08 Warning: Further gmin increment
Trying gmin =   3.4481E-08 Note: One successful gmin step
Trying gmin =   3.4479E-08 Warning: Last gmin step failed
Warning: True gmin stepping failed
Note: Starting dynamic gmin stepping
Trying gmin =   1.0000E-03 Note: One successful gmin step
Trying gmin =   1.0000E-04 Note: One successful gmin step
Trying gmin =   1.0000E-05 Note: One successful gmin step
Trying gmin =   1.0000E-06 Warning: Further gmin increment
Trying gmin =   5.6234E-06 Note: One successful gmin step
Trying gmin =   2.3714E-06 Note: One successful gmin step
Trying gmin =   1.0000E-06 Note: One successful gmin step
Trying gmin =   2.7384E-07 Note: One successful gmin step
Trying gmin =   3.9242E-08 Warning: Further gmin increment
Trying gmin =   1.6849E-07 Note: One successful gmin step
Trying gmin =   8.1312E-08 Warning: Further gmin increment
Trying gmin =   1.4043E-07 Warning: Further gmin increment
Trying gmin =   1.6099E-07 Note: One successful gmin step
Trying gmin =   1.5036E-07 Warning: Further gmin increment
Trying gmin =   1.5826E-07 Note: One successful gmin step
Trying gmin =   1.5426E-07 Warning: Further gmin increment
Trying gmin =   1.5725E-07 Warning: Further gmin increment
Trying gmin =   1.5801E-07 Warning: Further gmin increment
Trying gmin =   1.5820E-07 Note: One successful gmin step
Trying gmin =   1.5810E-07 Warning: Further gmin increment
Trying gmin =   1.5817E-07 Note: One successful gmin step
Trying gmin =   1.5814E-07 Note: One successful gmin step
Trying gmin =   1.5808E-07 Warning: Further gmin increment
Trying gmin =   1.5812E-07 Note: One successful gmin step
Trying gmin =   1.5810E-07 Warning: Further gmin increment
Trying gmin =   1.5812E-07 Warning: Last gmin step failed
Warning: Dynamic gmin stepping failed
Note: Starting source stepping
Supplies reduced to   0.0000% Note: One successful source step
Supplies reduced to   0.1000% Note: One successful source step
Supplies reduced to   0.2000% Note: One successful source step
Supplies reduced to   0.3500% Note: One successful source step
Supplies reduced to   0.5750% Note: One successful source step
Supplies reduced to   0.9125% Note: One successful source step
Supplies reduced to   1.4188% Note: One successful source step
Supplies reduced to   2.1781% Note: One successful source step
Supplies reduced to   3.3172% Note: One successful source step
Supplies reduced to   5.0258% Note: One successful source step
Supplies reduced to   7.5887% Note: One successful source step
Supplies reduced to  11.4330% Note: One successful source step
Supplies reduced to  17.1995% Note: One successful source step
Supplies reduced to  25.8493% Note: One successful source step
Supplies reduced to  38.8239% Supplies reduced to  25.8493% Note: One successful source step
Supplies reduced to  26.4980% Note: One successful source step
Supplies reduced to  27.4711% Note: One successful source step
Supplies reduced to  28.9307% Note: One successful source step
Supplies reduced to  31.1202% Note: One successful source step
Supplies reduced to  34.4044% Note: One successful source step
Supplies reduced to  39.3307% Supplies reduced to  34.4044% Note: One successful source step
Supplies reduced to  35.1434% Note: One successful source step
Supplies reduced to  36.2518% Note: One successful source step
Supplies reduced to  37.9144% Note: One successful source step
Supplies reduced to  40.4084% Note: One successful source step
Supplies reduced to  42.9023% Supplies reduced to  40.4084% Note: One successful source step
Supplies reduced to  40.6577% Note: One successful source step
Supplies reduced to  41.0318% Note: One successful source step
Supplies reduced to  41.5930% Note: One successful source step
Supplies reduced to  42.4347% Note: One successful source step
Supplies reduced to  43.6972% Note: One successful source step
Supplies reduced to  45.5911% Note: One successful source step
Supplies reduced to  48.4318% Note: One successful source step
Supplies reduced to  52.6930% Note: One successful source step
Supplies reduced to  59.0847% Note: One successful source step
Supplies reduced to  68.6722% Note: One successful source step
Supplies reduced to  83.0536% Supplies reduced to  68.6722% Note: One successful source step
Supplies reduced to  69.6722% Note: One successful source step
Supplies reduced to  71.1722% Note: One successful source step
Supplies reduced to  73.4222% Note: One successful source step
Supplies reduced to  76.7972% Note: One successful source step
Supplies reduced to  81.8597% Note: One successful source step
Supplies reduced to  89.4535% Supplies reduced to  81.8597% Note: One successful source step
Supplies reduced to  82.8597% Note: One successful source step
Supplies reduced to  84.3597% Supplies reduced to  82.8597% Note: One successful source step
Supplies reduced to  83.0847% Supplies reduced to  82.8597% Note: One successful source step
Supplies reduced to  82.8935% Note: One successful source step
Supplies reduced to  82.9441% Note: One successful source step
Supplies reduced to  83.0200% Supplies reduced to  82.9441% Note: One successful source step
Supplies reduced to  82.9555% Note: One successful source step
Supplies reduced to  82.9726% Note: One successful source step
Supplies reduced to  82.9982% Supplies reduced to  82.9726% Note: One successful source step
Supplies reduced to  82.9764% Supplies reduced to  82.9726% Note: One successful source step
Supplies reduced to  82.9732% Note: One successful source step
Supplies reduced to  82.9740% Note: One successful source step
Supplies reduced to  82.9753% Supplies reduced to  82.9740% Note: One successful source step
Supplies reduced to  82.9742% Note: One successful source step
Supplies reduced to  82.9745% Note: One successful source step
Supplies reduced to  82.9749% Supplies reduced to  82.9745% Note: One successful source step
Supplies reduced to  82.9746% Warning: source stepping failed
doAnalyses: Too many iterations without convergence

dc simulation(s) aborted
Error(parse.c--checkvalid): vldo_sup_2_8: zero length vector.
Error: RHS "abs((vldo_sup_2_8-vldo_sup_2)/0.8)" invalid
Error(parse.c--checkvalid): line_reg: zero length vector.
Error(parse.c--checkvalid): vin: zero length vector.
Error: RHS "vin-1.764" invalid
Error(parse.c--checkvalid): dropout: zero length vector.
Error: no such vector dropout
Note: No ".plot", ".print", or ".fourier" lines; no simulations run
pm                  =  9.093019e+01
Doing analysis at TEMP = 0.000000 and TNOM = 27.000000


No. of Data Rows : 91
psrr100             =  -1.437845e+01
psrr100k            =  -7.842982e+00
Doing analysis at TEMP = 0.000000 and TNOM = 27.000000


No. of Data Rows : 86
temp_coeff = 7.463462e+01
Doing analysis at TEMP = 0.000000 and TNOM = 27.000000


Error: measure  vldo_sup_2  (AT) : out of interval
 meas dc vldo_sup_2 find ldo_out at=2 failed!


Error: measure  vldo_sup_2_8  (AT) : out of interval
 meas dc vldo_sup_2_8 find ldo_out at=2.8 failed!


Error: measure  vin  (WHEN) : out of interval
 meas dc vin when v(ldo_out)=1.764 failed!

