Note: Starting true gmin stepping
Trying gmin =   1.0000E-03 Note: One successful gmin step
Trying gmin =   1.0000E-04 Note: One successful gmin step
Trying gmin =   1.0000E-05 Note: One successful gmin step
Trying gmin =   1.0000E-06 Note: One successful gmin step
Trying gmin =   1.0000E-07 Warning: Further gmin increment
Trying gmin =   5.6234E-07 Note: One successful gmin step
Trying gmin =   2.3714E-07 Note: One successful gmin step
Trying gmin =   6.4938E-08 Warning: Further gmin increment
Trying gmin =   1.7154E-07 Note: One successful gmin step
Trying gmin =   1.0554E-07 Warning: Further gmin increment
Trying gmin =   1.5193E-07 Note: One successful gmin step
Trying gmin =   1.2663E-07 Note: One successful gmin step
Trying gmin =   9.6358E-08 Note: One successful gmin step
Trying gmin =   7.3322E-08 Note: One successful gmin step
Trying gmin =   4.8669E-08 Note: One successful gmin step
Trying gmin =   2.6320E-08 Note: One successful gmin step
Trying gmin =   1.0467E-08 Note: One successful gmin step
Trying gmin =   6.6010E-09 Note: One successful gmin step
Trying gmin =   3.3058E-09 Note: One successful gmin step
Trying gmin =   1.1716E-09 Note: One successful gmin step
Trying gmin =   2.4717E-10 Note: One successful gmin step
Trying gmin =   2.4717E-11 Note: One successful gmin step
Trying gmin =   2.4717E-12 Note: One successful gmin step
Trying gmin =   1.0000E-12 Note: One successful gmin step
Note: True gmin stepping completed
 Reference value :  0.00000e+00
No compatibility mode selected!


Circuit: * ldo netlist 

Doing analysis at TEMP = 0.000000 and TNOM = 27.000000


No. of Data Rows : 1
bg_out = 1.195818e+00
inn = 1.266605e+00
inp = 1.266567e+00
l1#branch = 0.000000e+00
ldo_out = 1.798525e+00
m.xm1.msky130_fd_pr__nfet_g5v0d10v5#body = 1.550801e-11
m.xm1.msky130_fd_pr__nfet_g5v0d10v5#dbody = 3.223265e-11
m.xm1.msky130_fd_pr__nfet_g5v0d10v5#sbody = 1.429137e-11
m.xm2.msky130_fd_pr__pfet_g5v0d10v5#body = 2.300000e+00
m.xm2.msky130_fd_pr__pfet_g5v0d10v5#dbody = 2.300000e+00
m.xm2.msky130_fd_pr__pfet_g5v0d10v5#sbody = 2.300000e+00
m.xm3.msky130_fd_pr__pfet_g5v0d10v5#body = 2.300000e+00
m.xm3.msky130_fd_pr__pfet_g5v0d10v5#dbody = 2.300000e+00
m.xm3.msky130_fd_pr__pfet_g5v0d10v5#sbody = 2.300000e+00
m.xm4.msky130_fd_pr__pfet_g5v0d10v5#body = 2.300000e+00
m.xm4.msky130_fd_pr__pfet_g5v0d10v5#dbody = 2.300000e+00
m.xm4.msky130_fd_pr__pfet_g5v0d10v5#sbody = 2.300000e+00
m.xm5.msky130_fd_pr__pfet_g5v0d10v5#body = 2.300000e+00
m.xm5.msky130_fd_pr__pfet_g5v0d10v5#dbody = 2.300000e+00
m.xm5.msky130_fd_pr__pfet_g5v0d10v5#sbody = 2.300000e+00
m.xm6.msky130_fd_pr__nfet_g5v0d10v5#body = 1.247052e-11
m.xm6.msky130_fd_pr__nfet_g5v0d10v5#dbody = 3.117630e-11
m.xm6.msky130_fd_pr__nfet_g5v0d10v5#sbody = 6.235266e-12
m.xm7.msky130_fd_pr__pfet_g5v0d10v5#body = 2.300000e+00
m.xm7.msky130_fd_pr__pfet_g5v0d10v5#dbody = 2.300000e+00
m.xm7.msky130_fd_pr__pfet_g5v0d10v5#sbody = 2.300000e+00
m.xm8.msky130_fd_pr__pfet_g5v0d10v5#body = 2.300000e+00
m.xm8.msky130_fd_pr__pfet_g5v0d10v5#dbody = 2.300000e+00
m.xm8.msky130_fd_pr__pfet_g5v0d10v5#sbody = 2.300000e+00
m.xm9.msky130_fd_pr__nfet_g5v0d10v5#body = 1.583993e-11
m.xm9.msky130_fd_pr__nfet_g5v0d10v5#dbody = 3.467554e-11
m.xm9.msky130_fd_pr__nfet_g5v0d10v5#sbody = 1.284425e-11
m.xm10.msky130_fd_pr__nfet_g5v0d10v5#body = 1.571577e-11
m.xm10.msky130_fd_pr__nfet_g5v0d10v5#dbody = 3.436513e-11
m.xm10.msky130_fd_pr__nfet_g5v0d10v5#sbody = 1.278217e-11
m.xm11.msky130_fd_pr__pfet_g5v0d10v5#body = 2.300000e+00
m.xm11.msky130_fd_pr__pfet_g5v0d10v5#dbody = 2.300000e+00
m.xm11.msky130_fd_pr__pfet_g5v0d10v5#sbody = 2.300000e+00
m.xm12.msky130_fd_pr__pfet_g5v0d10v5#body = 2.300000e+00
m.xm12.msky130_fd_pr__pfet_g5v0d10v5#dbody = 2.300000e+00
m.xm12.msky130_fd_pr__pfet_g5v0d10v5#sbody = 2.300000e+00
m.xm13.msky130_fd_pr__nfet_g5v0d10v5#body = 2.462124e-12
m.xm13.msky130_fd_pr__nfet_g5v0d10v5#dbody = 6.155300e-12
m.xm13.msky130_fd_pr__nfet_g5v0d10v5#sbody = 1.231072e-12
m.xm14.msky130_fd_pr__pfet_g5v0d10v5#body = 2.300000e+00
m.xm14.msky130_fd_pr__pfet_g5v0d10v5#dbody = 2.300000e+00
m.xm14.msky130_fd_pr__pfet_g5v0d10v5#sbody = 2.300000e+00
m.xm15.msky130_fd_pr__nfet_g5v0d10v5#body = 6.735960e-17
m.xm15.msky130_fd_pr__nfet_g5v0d10v5#dbody = 1.683958e-16
m.xm15.msky130_fd_pr__nfet_g5v0d10v5#sbody = 3.368302e-17
m.xm16.msky130_fd_pr__nfet_g5v0d10v5#body = 4.458268e-11
m.xm16.msky130_fd_pr__nfet_g5v0d10v5#dbody = 7.979146e-11
m.xm16.msky130_fd_pr__nfet_g5v0d10v5#sbody = 5.395659e-11
m.xm17.msky130_fd_pr__pfet_g5v0d10v5#body = 2.300000e+00
m.xm17.msky130_fd_pr__pfet_g5v0d10v5#dbody = 2.300000e+00
m.xm17.msky130_fd_pr__pfet_g5v0d10v5#sbody = 2.300000e+00
m.xm18.msky130_fd_pr__nfet_g5v0d10v5#body = 8.252529e-12
m.xm18.msky130_fd_pr__nfet_g5v0d10v5#dbody = 2.063131e-11
m.xm18.msky130_fd_pr__nfet_g5v0d10v5#sbody = 4.126276e-12
m.xm19.msky130_fd_pr__nfet_g5v0d10v5#body = 1.556599e-11
m.xm19.msky130_fd_pr__nfet_g5v0d10v5#dbody = 3.237761e-11
m.xm19.msky130_fd_pr__nfet_g5v0d10v5#sbody = 1.432036e-11
m.xm20.msky130_fd_pr__nfet_g5v0d10v5#body = 1.304181e-11
m.xm20.msky130_fd_pr__nfet_g5v0d10v5#dbody = 3.260451e-11
m.xm20.msky130_fd_pr__nfet_g5v0d10v5#sbody = 6.520916e-12
m.xm22.msky130_fd_pr__nfet_g5v0d10v5#body = 3.268719e-12
m.xm22.msky130_fd_pr__nfet_g5v0d10v5#dbody = 8.171794e-12
m.xm22.msky130_fd_pr__nfet_g5v0d10v5#sbody = 1.634364e-12
m.xm24.msky130_fd_pr__pfet_g5v0d10v5#body = 2.300000e+00
m.xm24.msky130_fd_pr__pfet_g5v0d10v5#dbody = 2.300000e+00
m.xm24.msky130_fd_pr__pfet_g5v0d10v5#sbody = 2.300000e+00
m.xm26.msky130_fd_pr__pfet_g5v0d10v5#body = 2.300000e+00
m.xm26.msky130Note: Starting true gmin stepping
Trying gmin =   1.0000E-03 Note: One successful gmin step
Trying gmin =   1.0000E-04 Note: One successful gmin step
Trying gmin =   1.0000E-05 Note: One successful gmin step
Trying gmin =   1.0000E-06 Note: One successful gmin step
Trying gmin =   1.0000E-07 Warning: Further gmin increment
Trying gmin =   5.6234E-07 Note: One successful gmin step
Trying gmin =   2.3714E-07 Note: One successful gmin step
Trying gmin =   6.4938E-08 Warning: Further gmin increment
Trying gmin =   1.7154E-07 Note: One successful gmin step
Trying gmin =   1.0554E-07 Warning: Further gmin increment
Trying gmin =   1.5193E-07 Note: One successful gmin step
Trying gmin =   1.2663E-07 Note: One successful gmin step
Trying gmin =   9.6358E-08 Note: One successful gmin step
Trying gmin =   7.3322E-08 Note: One successful gmin step
Trying gmin =   4.8669E-08 Note: One successful gmin step
Trying gmin =   2.6320E-08 Note: One successful gmin step
Trying gmin =   1.0467E-08 Note: One successful gmin step
Trying gmin =   6.6010E-09 Note: One successful gmin step
Trying gmin =   3.3058E-09 Note: One successful gmin step
Trying gmin =   1.1716E-09 Note: One successful gmin step
Trying gmin =   2.4717E-10 Note: One successful gmin step
Trying gmin =   2.4717E-11 Note: One successful gmin step
Trying gmin =   2.4717E-12 Note: One successful gmin step
Trying gmin =   1.0000E-12 Note: One successful gmin step
Note: True gmin stepping completed
_fd_pr__pfet_g5v0d10v5#dbody = 2.300000e+00
m.xm26.msky130_fd_pr__pfet_g5v0d10v5#sbody = 2.300000e+00
mir = 9.791412e-01
net1 = 7.746797e-01
net2 = 5.385565e-06
net3 = 8.280663e-01
net4 = 2.614898e-01
net5 = 9.837800e-01
net6 = 9.976340e-01
net7 = 8.280273e-01
net8 = 1.060287e+00
net9 = 1.070220e+00
net10 = 1.969681e-01
net11 = 6.602005e-01
net12 = 6.602005e-01
net13 = 0.000000e+00
out = 6.602005e-01
pos = 1.195911e+00
q.xq2.qsky130_fd_pr__pnp_05v5_w0p68l0p68#collcx = 1.708474e-03
q.xq3.qsky130_fd_pr__pnp_05v5_w0p68l0p68#collcx = 2.162961e-04
q.xq4.qsky130_fd_pr__pnp_05v5_w0p68l0p68#collcx = 2.162961e-04
q.xq8.qsky130_fd_pr__pnp_05v5_w0p68l0p68#collcx = 2.162961e-04
q.xq10.qsky130_fd_pr__pnp_05v5_w0p68l0p68#collcx = 2.162961e-04
q.xq12.qsky130_fd_pr__pnp_05v5_w0p68l0p68#collcx = 2.162961e-04
q.xq14.qsky130_fd_pr__pnp_05v5_w0p68l0p68#collcx = 2.162961e-04
q.xq16.qsky130_fd_pr__pnp_05v5_w0p68l0p68#collcx = 2.162961e-04
q.xq18.qsky130_fd_pr__pnp_05v5_w0p68l0p68#collcx = 2.162961e-04
vb = 1.043343e+00
vdd = 2.300000e+00
vs#branch = -1.00037e-01
vt#branch = 0.000000e+00
xc1.a = 0.000000e+00
xc1.b1 = 0.000000e+00
xc3.a = 6.602005e-01
xc3.b1 = 6.602005e-01
xr1.xsky130_fd_pr__res_xhigh_po_0p69.ra = 8.331381e-01
xr2.xsky130_fd_pr__res_xhigh_po_0p69.ra = 8.331770e-01
xr3.xsky130_fd_pr__res_xhigh_po_0p69.ra = 3.660826e-03
xr4.xsky130_fd_pr__res_xhigh_po_0p69.ra = 7.762172e-01
xr5.xsky130_fd_pr__res_xhigh_po_0p69.ra = 3.660642e-03
xr6.xsky130_fd_pr__res_xhigh_po_0p69.ra = 5.444434e-03
xr7.xsky130_fd_pr__res_xhigh_po_0p69.ra = 6.602005e-01
xr8.xsky130_fd_pr__res_xhigh_po_0p69.ra = 1.204965e+00
xr9.xsky130_fd_pr__res_xhigh_po_0p69.ra = 9.496138e-03
Doing analysis at TEMP = 0.000000 and TNOM = 27.000000


No. of Data Rows : 91
Note: Starting true gmin stepping
Trying gmin =   1.0000E-03 Note: One successful gmin step
Trying gmin =   1.0000E-04 Note: One successful gmin step
Trying gmin =   1.0000E-05 Note: One successful gmin step
Trying gmin =   1.0000E-06 Note: One successful gmin step
Trying gmin =   1.0000E-07 Warning: Further gmin increment
Trying gmin =   5.6234E-07 Note: One successful gmin step
Trying gmin =   2.3714E-07 Note: One successful gmin step
Trying gmin =   6.4938E-08 Warning: Further gmin increment
Trying gmin =   1.7154E-07 Note: One successful gmin step
Trying gmin =   1.0554E-07 Warning: Further gmin increment
Trying gmin =   1.5193E-07 Note: One successful gmin step
Trying gmin =   1.2663E-07 Note: One successful gmin step
Trying gmin =   9.6358E-08 Note: One successful gmin step
Trying gmin =   7.3322E-08 Note: One successful gmin step
Trying gmin =   4.8669E-08 Note: One successful gmin step
Trying gmin =   2.6320E-08 Note: One successful gmin step
Trying gmin =   1.0467E-08 Note: One successful gmin step
Trying gmin =   6.6010E-09 Note: One successful gmin step
Trying gmin =   3.3058E-09 Note: One successful gmin step
Trying gmin =   1.1716E-09 Note: One successful gmin step
Trying gmin =   2.4717E-10 Note: One successful gmin step
Trying gmin =   2.4717E-11 Note: One successful gmin step
Trying gmin =   2.4717E-12 Note: One successful gmin step
Trying gmin =   1.0000E-12 Note: One successful gmin step
Note: True gmin stepping completed
 Reference value :  1.00000e+00Note: Starting true gmin stepping
Trying gmin =   1.0000E-03 Note: One successful gmin step
Trying gmin =   1.0000E-04 Note: One successful gmin step
Trying gmin =   1.0000E-05 Note: One successful gmin step
Trying gmin =   1.0000E-06 Note: One successful gmin step
Trying gmin =   1.0000E-07 Note: One successful gmin step
Trying gmin =   1.0000E-08 Warning: Further gmin increment
Trying gmin =   5.6234E-08 Warning: Further gmin increment
Trying gmin =   8.6596E-08 Note: One successful gmin step
Trying gmin =   6.9783E-08 Note: One successful gmin step
Trying gmin =   5.0481E-08 Warning: Further gmin increment
Trying gmin =   6.4357E-08 Note: One successful gmin step
Trying gmin =   5.6998E-08 Warning: Further gmin increment
Trying gmin =   6.2432E-08 Warning: Further gmin increment
Trying gmin =   6.3870E-08 Note: One successful gmin step
Trying gmin =   6.3147E-08 Note: One successful gmin step
Trying gmin =   6.2078E-08 Warning: Further gmin increment
Trying gmin =   6.2878E-08 Note: One successful gmin step
Trying gmin =   6.2477E-08 Warning: Further gmin increment
Trying gmin =   6.2778E-08 Note: One successful gmin step
Trying gmin =   6.2627E-08 Note: One successful gmin step
Trying gmin =   6.2402E-08 Warning: Further gmin increment
Trying gmin =   6.2571E-08 Warning: Further gmin increment
Trying gmin =   6.2613E-08 Note: One successful gmin step
Trying gmin =   6.2592E-08 Note: One successful gmin step
Trying gmin =   6.2560E-08 Warning: Further gmin increment
Trying gmin =   6.2584E-08 Note: One successful gmin step
Trying gmin =   6.2572E-08 Warning: Further gmin increment
Trying gmin =   6.2581E-08 Note: One successful gmin step
Trying gmin =   6.2576E-08 Note: One successful gmin step
Trying gmin =   6.2570E-08 Warning: Further gmin increment
Trying gmin =   6.2575E-08 Warning: Last gmin step failed
Warning: True gmin stepping failed
Note: Starting dynamic gmin stepping
Trying gmin =   1.0000E-03 Note: One successful gmin step
Trying gmin =   1.0000E-04 Note: One successful gmin step
Trying gmin =   1.0000E-05 Note: One successful gmin step
Trying gmin =   1.0000E-06 Warning: Further gmin increment
Trying gmin =   5.6234E-06 Note: One successful gmin step
Trying gmin =   2.3714E-06 Note: One successful gmin step
Trying gmin =   6.4938E-07 Note: One successful gmin step
Trying gmin =   9.3057E-08 Warning: Further gmin increment
Trying gmin =   3.9954E-07 Note: One successful gmin step
Trying gmin =   1.9282E-07 Warning: Further gmin increment
Trying gmin =   3.3301E-07 Note: One successful gmin step
Trying gmin =   2.5340E-07 Warning: Further gmin increment
Trying gmin =   3.1103E-07 Note: One successful gmin step
Trying gmin =   2.8074E-07 Warning: Further gmin increment
Trying gmin =   3.0316E-07 Note: One successful gmin step
Trying gmin =   2.9174E-07 Warning: Further gmin increment
Trying gmin =   3.0026E-07 Note: One successful gmin step
Trying gmin =   2.9597E-07 Note: One successful gmin step
Trying gmin =   2.8964E-07 Warning: Further gmin increment
Trying gmin =   2.9437E-07 Note: One successful gmin step
Trying gmin =   2.9200E-07 Note: One successful gmin step
Trying gmin =   2.8847E-07 Warning: Further gmin increment
Trying gmin =   2.9111E-07 Warning: Further gmin increment
Trying gmin =   2.9178E-07 Warning: Further gmin increment
Trying gmin =   2.9194E-07 Warning: Further gmin increment
Trying gmin =   2.9198E-07 Warning: Last gmin step failed
Warning: Dynamic gmin stepping failed
Note: Starting source stepping
Supplies reduced to   0.0000% Note: One successful source step
Supplies reduced to   0.1000% Note: One successful source step
Supplies reduced to   0.2000% Note: One successful source step
Supplies reduced to   0.3500% Note: One successful source step
Supplies reduced to   0.5750% Note: One successful source step
Supplies reduced to   0.9125% Note: One successful source step
Supplies reduced to   1.4188% Note: One successful source step
Supplies reduced to   2.1781% Note: One successful source step
Supplies reduced to   3.3172% Note: One successful source step
Supplies reduced to   5.0258% Note: One successful source step
Supplies reduced to   7.5887% Note: One successful source step
Supplies reduced to  11.4330% Note: One successful source step
Supplies reduced to  17.1995% Note: One successful source step
Supplies reduced to  25.8493% Note: One successful source step
Supplies reduced to  38.8239% Supplies reduced to  25.8493% Note: One successful source step
Supplies reduced to  26.8493% Note: One successful source step
Supplies reduced to  28.3493% Note: One successful source step
Supplies reduced to  30.5993% Note: One successful source step
Supplies reduced to  33.9743% Note: One successful source step
Supplies reduced to  39.0368% Note: One successful source step
Supplies reduced to  44.0993% Note: One successful source step
Supplies reduced to  51.6930% Supplies reduced to  44.0993% Note: One successful source step
Supplies reduced to  44.4790% Note: One successful source step
Supplies reduced to  45.0485% Note: One successful source step
Supplies reduced to  45.9028% Note: One successful source step
Supplies reduced to  47.1842% Note: One successful source step
Supplies reduced to  49.1064% Supplies reduced to  47.1842% Note: One successful source step
Supplies reduced to  47.4726% Note: One successful source step
Supplies reduced to  47.9050% Note: One successful source step
Supplies reduced to  48.5538% Note: One successful source step
Supplies reduced to  49.5269% Note: One successful source step
Supplies reduced to  50.9865% Note: One successful source step
Supplies reduced to  53.1760% Note: One successful source step
Supplies reduced to  56.4602% Note: One successful source step
Supplies reduced to  61.3865% Note: One successful source step
Supplies reduced to  68.7760% Note: One successful source step
Supplies reduced to  79.8601% Supplies reduced to  68.7760% Note: One successful source step
Supplies reduced to  69.7760% Note: One successful source step
Supplies reduced to  71.2760% Note: One successful source step
Supplies reduced to  73.5260% Supplies reduced to  71.2760% Note: One successful source step
Supplies reduced to  71.6135% Note: One successful source step
Supplies reduced to  72.1197% Supplies reduced to  71.6135% Note: One successful source step
Supplies reduced to  71.6894% Note: One successful source step
Supplies reduced to  71.8033% Note: One successful source step
Supplies reduced to  71.9742% Supplies reduced to  71.8033% Note: One successful source step
Supplies reduced to  71.8289% Supplies reduced to  71.8033% Note: One successful source step
Supplies reduced to  71.8071% Note: One successful source step
Supplies reduced to  71.8129% Note: One successful source step
Supplies reduced to  71.8216% Supplies reduced to  71.8129% Note: One successful source step
Supplies reduced to  71.8142% Note: One successful source step
Supplies reduced to  71.8162% Note: One successful source step
Supplies reduced to  71.8191% Note: One successful source step
Supplies reduced to  71.8235% Supplies reduced to  71.8191% Note: One successful source step
Supplies reduced to  71.8197% Note: One successful source step
Supplies reduced to  71.8207% Supplies reduced to  71.8197% Note: One successful source step
Supplies reduced to  71.8199% Note: One successful source step
Supplies reduced to  71.8201% Note: One successful source step
Supplies reduced to  71.8204% Supplies reduced to  71.8201% Note: One successful source step
Supplies reduced to  71.8202% Note: One successful source step
Supplies reduced to  71.8202% Note: One successful source step
Supplies reduced to  71.8203% Note: One successful source step
Supplies reduced to  71.8205% Supplies reduced to  71.8203% Note: One successful source step
Supplies reduced to  71.8204% Note: One successful source step
Supplies reduced to  71.8204% Warning: source stepping failed
doAnalyses: Too many iterations without convergence

dc simulation(s) aborted
Error(parse.c--checkvalid): vldo_sup_2_8: zero length vector.
Error: RHS "abs((vldo_sup_2_8-vldo_sup_2)/0.8)" invalid
Error(parse.c--checkvalid): line_reg: zero length vector.
Error(parse.c--checkvalid): vin: zero length vector.
Error: RHS "vin-1.764" invalid
Error(parse.c--checkvalid): dropout: zero length vector.
Error: no such vector dropout
Note: No ".plot", ".print", or ".fourier" lines; no simulations run
pm                  =  9.314830e+01
Doing analysis at TEMP = 0.000000 and TNOM = 27.000000


No. of Data Rows : 91
psrr100             =  -5.949272e+01
psrr100k            =  -2.527593e+01
Doing analysis at TEMP = 0.000000 and TNOM = 27.000000


No. of Data Rows : 86
temp_coeff = 1.480603e+02
Doing analysis at TEMP = 0.000000 and TNOM = 27.000000


Error: measure  vldo_sup_2  (AT) : out of interval
 meas dc vldo_sup_2 find ldo_out at=2 failed!


Error: measure  vldo_sup_2_8  (AT) : out of interval
 meas dc vldo_sup_2_8 find ldo_out at=2.8 failed!


Error: measure  vin  (WHEN) : out of interval
 meas dc vin when v(ldo_out)=1.764 failed!

