 Reference value :  0.00000e+00
No compatibility mode selected!


Circuit: * ldo netlist 

Doing analysis at TEMP = 27.000000 and TNOM = 27.000000


No. of Data Rows : 1
bg_out = 1.187563e+00
inn = 1.214884e+00
inp = 1.214873e+00
l1#branch = 0.000000e+00
ldo_out = 1.785651e+00
m.xm1.msky130_fd_pr__nfet_g5v0d10v5#body = 1.843373e-11
m.xm1.msky130_fd_pr__nfet_g5v0d10v5#dbody = 3.806652e-11
m.xm1.msky130_fd_pr__nfet_g5v0d10v5#sbody = 1.723467e-11
m.xm2.msky130_fd_pr__pfet_g5v0d10v5#body = 2.300000e+00
m.xm2.msky130_fd_pr__pfet_g5v0d10v5#dbody = 2.300000e+00
m.xm2.msky130_fd_pr__pfet_g5v0d10v5#sbody = 2.300000e+00
m.xm3.msky130_fd_pr__pfet_g5v0d10v5#body = 2.300000e+00
m.xm3.msky130_fd_pr__pfet_g5v0d10v5#dbody = 2.300000e+00
m.xm3.msky130_fd_pr__pfet_g5v0d10v5#sbody = 2.300000e+00
m.xm4.msky130_fd_pr__pfet_g5v0d10v5#body = 2.300000e+00
m.xm4.msky130_fd_pr__pfet_g5v0d10v5#dbody = 2.300000e+00
m.xm4.msky130_fd_pr__pfet_g5v0d10v5#sbody = 2.300000e+00
m.xm5.msky130_fd_pr__pfet_g5v0d10v5#body = 2.300000e+00
m.xm5.msky130_fd_pr__pfet_g5v0d10v5#dbody = 2.300000e+00
m.xm5.msky130_fd_pr__pfet_g5v0d10v5#sbody = 2.300000e+00
m.xm6.msky130_fd_pr__nfet_g5v0d10v5#body = 1.124571e-11
m.xm6.msky130_fd_pr__nfet_g5v0d10v5#dbody = 2.811428e-11
m.xm6.msky130_fd_pr__nfet_g5v0d10v5#sbody = 5.622862e-12
m.xm7.msky130_fd_pr__pfet_g5v0d10v5#body = 2.300000e+00
m.xm7.msky130_fd_pr__pfet_g5v0d10v5#dbody = 2.300000e+00
m.xm7.msky130_fd_pr__pfet_g5v0d10v5#sbody = 2.300000e+00
m.xm8.msky130_fd_pr__pfet_g5v0d10v5#body = 2.300000e+00
m.xm8.msky130_fd_pr__pfet_g5v0d10v5#dbody = 2.300000e+00
m.xm8.msky130_fd_pr__pfet_g5v0d10v5#sbody = 2.300000e+00
m.xm9.msky130_fd_pr__nfet_g5v0d10v5#body = 1.907316e-11
m.xm9.msky130_fd_pr__nfet_g5v0d10v5#dbody = 4.048393e-11
m.xm9.msky130_fd_pr__nfet_g5v0d10v5#sbody = 1.673553e-11
m.xm10.msky130_fd_pr__nfet_g5v0d10v5#body = 1.898081e-11
m.xm10.msky130_fd_pr__nfet_g5v0d10v5#dbody = 4.025308e-11
m.xm10.msky130_fd_pr__nfet_g5v0d10v5#sbody = 1.668936e-11
m.xm11.msky130_fd_pr__pfet_g5v0d10v5#body = 2.300000e+00
m.xm11.msky130_fd_pr__pfet_g5v0d10v5#dbody = 2.300000e+00
m.xm11.msky130_fd_pr__pfet_g5v0d10v5#sbody = 2.300000e+00
m.xm12.msky130_fd_pr__pfet_g5v0d10v5#body = 2.300000e+00
m.xm12.msky130_fd_pr__pfet_g5v0d10v5#dbody = 2.300000e+00
m.xm12.msky130_fd_pr__pfet_g5v0d10v5#sbody = 2.300000e+00
m.xm13.msky130_fd_pr__nfet_g5v0d10v5#body = 3.598120e-12
m.xm13.msky130_fd_pr__nfet_g5v0d10v5#dbody = 8.995288e-12
m.xm13.msky130_fd_pr__nfet_g5v0d10v5#sbody = 1.799070e-12
m.xm14.msky130_fd_pr__pfet_g5v0d10v5#body = 2.300000e+00
m.xm14.msky130_fd_pr__pfet_g5v0d10v5#dbody = 2.300000e+00
m.xm14.msky130_fd_pr__pfet_g5v0d10v5#sbody = 2.300000e+00
m.xm15.msky130_fd_pr__nfet_g5v0d10v5#body = 2.479586e-16
m.xm15.msky130_fd_pr__nfet_g5v0d10v5#dbody = 6.198748e-16
m.xm15.msky130_fd_pr__nfet_g5v0d10v5#sbody = 1.240011e-16
m.xm16.msky130_fd_pr__nfet_g5v0d10v5#body = 4.394470e-11
m.xm16.msky130_fd_pr__nfet_g5v0d10v5#dbody = 7.948100e-11
m.xm16.msky130_fd_pr__nfet_g5v0d10v5#sbody = 5.235311e-11
m.xm17.msky130_fd_pr__pfet_g5v0d10v5#body = 2.300000e+00
m.xm17.msky130_fd_pr__pfet_g5v0d10v5#dbody = 2.300000e+00
m.xm17.msky130_fd_pr__pfet_g5v0d10v5#sbody = 2.300000e+00
m.xm18.msky130_fd_pr__nfet_g5v0d10v5#body = 1.141243e-11
m.xm18.msky130_fd_pr__nfet_g5v0d10v5#dbody = 2.853105e-11
m.xm18.msky130_fd_pr__nfet_g5v0d10v5#sbody = 5.706225e-12
m.xm19.msky130_fd_pr__nfet_g5v0d10v5#body = 1.845203e-11
m.xm19.msky130_fd_pr__nfet_g5v0d10v5#dbody = 3.811227e-11
m.xm19.msky130_fd_pr__nfet_g5v0d10v5#sbody = 1.724381e-11
m.xm20.msky130_fd_pr__nfet_g5v0d10v5#body = 1.126516e-11
m.xm20.msky130_fd_pr__nfet_g5v0d10v5#dbody = 2.816289e-11
m.xm20.msky130_fd_pr__nfet_g5v0d10v5#sbody = 5.632593e-12
m.xm22.msky130_fd_pr__nfet_g5v0d10v5#body = 4.011613e-12
m.xm22.msky130_fd_pr__nfet_g5v0d10v5#dbody = 1.002903e-11
m.xm22.msky130_fd_pr__nfet_g5v0d10v5#sbody = 2.005811e-12
m.xm24.msky130_fd_pr__pfet_g5v0d10v5#body = 2.300000e+00
m.xm24.msky130_fd_pr__pfet_g5v0d10v5#dbody = 2.300000e+00
m.xm24.msky130_fd_pr__pfet_g5v0d10v5#sbody = 2.300000e+00
m.xm26.msky130_fd_pr__pfet_g5v0d10v5#body = 2.300000e+00
m.xm26.msky130_fd_pr__pfet_g5v0d10v5#dbody = 2.300000e+00
m.xm26.msky130_fd_pr__pfet_g5v0d10v5#sbody = 2.300000e+00
mir = 1.153640e+00
net1 = 7.192232e-01
net2 = 1.907973e-05
net3 = 7.788878e-01
net4 = 3.203660e-01
net5 = 1.155104e+00
net6 = 8.990940e-01
net7 = 7.788755e-01
net8 = 1.230270e+00
net9 = 1.237657e+00
net10 = 2.877207e-01
net11 = 9.128651e-01
net12 = 9.128651e-01
net13 = 0.000000e+00
out = 9.128651e-01
pos = 1.187636e+00
q.xq2.qsky130_fd_pr__pnp_05v5_w0p68l0p68#collcx = 2.149809e-03
q.xq3.qsky130_fd_pr__pnp_05v5_w0p68l0p68#collcx = 2.700366e-04
q.xq4.qsky130_fd_pr__pnp_05v5_w0p68l0p68#collcx = 2.700366e-04
q.xq8.qsky130_fd_pr__pnp_05v5_w0p68l0p68#collcx = 2.700366e-04
q.xq10.qsky130_fd_pr__pnp_05v5_w0p68l0p68#collcx = 2.700366e-04
q.xq12.qsky130_fd_pr__pnp_05v5_w0p68l0p68#collcx = 2.700366e-04
q.xq14.qsky130_fd_pr__pnp_05v5_w0p68l0p68#collcx = 2.700366e-04
q.xq16.qsky130_fd_pr__pnp_05v5_w0p68l0p68#collcx = 2.700366e-04
q.xq18.qsky130_fd_pr__pnp_05v5_w0p68l0p68#collcx = 2.700366e-04
vb = 9.010841e-01
vdd = 2.300000e+00
vs#branch = -9.93236e-02
vt#branch = 0.000000e+00
xc1.a = 0.000000e+00
xc1.b1 = 0.000000e+00
xc3.a = 9.128651e-01
xc3.b1 = 9.128651e-01
xr1.xsky130_fd_pr__res_xhigh_po_0p69.ra = 7.863910e-01
xr2.xsky130_fd_pr__res_xhigh_po_0p69.ra = 7.864033e-01
xr3.xsky130_fd_pr__res_xhigh_po_0p69.ra = 5.068610e-03
xr4.xsky130_fd_pr__res_xhigh_po_0p69.ra = 7.217661e-01
xr5.xsky130_fd_pr__res_xhigh_po_0p69.ra = 5.068525e-03
xr6.xsky130_fd_pr__res_xhigh_po_0p69.ra = 7.985985e-03
xr7.xsky130_fd_pr__res_xhigh_po_0p69.ra = 9.128651e-01
xr8.xsky130_fd_pr__res_xhigh_po_0p69.ra = 1.200925e+00
xr9.xsky130_fd_pr__res_xhigh_po_0p69.ra = 1.393371e-02
Doing analysis at TEMP = 27.000000 and TNOM = 27.000000


No. of Data Rows : 91
Note: Starting true gmin stepping
Trying gmin =   1.0000E-03 Note: One successful gmin step
Trying gmin =   1.0000E-04 Note: One successful gmin step
Trying gmin =   1.0000E-05 Note: One successful gmin step
Trying gmin =   1.0000E-06 Note: One successful gmin step
Trying gmin =   1.0000E-07 Note: One successful gmin step
Trying gmin =   1.0000E-08 Warning: Further gmin increment
Trying gmin =   5.6234E-08 Note: One successful gmin step
Trying gmin =   2.3714E-08 Note: One successful gmin step
Trying gmin =   1.5399E-08 Note: One successful gmin step
Trying gmin =   8.0584E-09 Note: One successful gmin step
Trying gmin =   3.0505E-09 Note: One successful gmin step
Trying gmin =   7.1050E-10 Note: One successful gmin step
Trying gmin =   7.9863E-11 Note: One successful gmin step
Trying gmin =   7.9863E-12 Note: One successful gmin step
Trying gmin =   1.0000E-12 Note: One successful gmin step
Note: True gmin stepping completed
 Reference value :  2.80000e+00pm                  =  5.800424e+01
Doing analysis at TEMP = 27.000000 and TNOM = 27.000000


No. of Data Rows : 91
psrr100             =  -8.439236e+01
psrr100k            =  -2.439809e+01
Doing analysis at TEMP = 27.000000 and TNOM = 27.000000


No. of Data Rows : 86
temp_coeff = 7.463462e+01
Doing analysis at TEMP = 27.000000 and TNOM = 27.000000


No. of Data Rows : 141
vldo_sup_2          =  1.861865e+00
vldo_sup_2_8        =  2.672441e+00
line_reg = 1.013220e+00
Note: No ".plot", ".print", or ".fourier" lines; no simulations run
vin                 =  1.905863e+00
dropout = 1.418630e-01
