 Reference value :  0.00000e+00
No compatibility mode selected!


Circuit: * ldo netlist 

Doing analysis at TEMP = 85.000000 and TNOM = 27.000000


No. of Data Rows : 1
bg_out = 1.203125e+00
inn = 1.154069e+00
inp = 1.153980e+00
l1#branch = 2.168404e-19
ldo_out = 1.809882e+00
m.xm1.msky130_fd_pr__nfet_g5v0d10v5#body = 2.466167e-11
m.xm1.msky130_fd_pr__nfet_g5v0d10v5#dbody = 4.484330e-11
m.xm1.msky130_fd_pr__nfet_g5v0d10v5#sbody = 2.914171e-11
m.xm2.msky130_fd_pr__pfet_g5v0d10v5#body = 2.100000e+00
m.xm2.msky130_fd_pr__pfet_g5v0d10v5#dbody = 2.100000e+00
m.xm2.msky130_fd_pr__pfet_g5v0d10v5#sbody = 2.100000e+00
m.xm3.msky130_fd_pr__pfet_g5v0d10v5#body = 2.100000e+00
m.xm3.msky130_fd_pr__pfet_g5v0d10v5#dbody = 2.100000e+00
m.xm3.msky130_fd_pr__pfet_g5v0d10v5#sbody = 2.100000e+00
m.xm4.msky130_fd_pr__pfet_g5v0d10v5#body = 2.100000e+00
m.xm4.msky130_fd_pr__pfet_g5v0d10v5#dbody = 2.100000e+00
m.xm4.msky130_fd_pr__pfet_g5v0d10v5#sbody = 2.100000e+00
m.xm5.msky130_fd_pr__pfet_g5v0d10v5#body = 2.100000e+00
m.xm5.msky130_fd_pr__pfet_g5v0d10v5#dbody = 2.100000e+00
m.xm5.msky130_fd_pr__pfet_g5v0d10v5#sbody = 2.100000e+00
m.xm6.msky130_fd_pr__nfet_g5v0d10v5#body = 2.031126e-11
m.xm6.msky130_fd_pr__nfet_g5v0d10v5#dbody = 5.077804e-11
m.xm6.msky130_fd_pr__nfet_g5v0d10v5#sbody = 1.015574e-11
m.xm7.msky130_fd_pr__pfet_g5v0d10v5#body = 2.100000e+00
m.xm7.msky130_fd_pr__pfet_g5v0d10v5#dbody = 2.100000e+00
m.xm7.msky130_fd_pr__pfet_g5v0d10v5#sbody = 2.100000e+00
m.xm8.msky130_fd_pr__pfet_g5v0d10v5#body = 2.100000e+00
m.xm8.msky130_fd_pr__pfet_g5v0d10v5#dbody = 2.100000e+00
m.xm8.msky130_fd_pr__pfet_g5v0d10v5#sbody = 2.100000e+00
m.xm9.msky130_fd_pr__nfet_g5v0d10v5#body = 2.289509e-11
m.xm9.msky130_fd_pr__nfet_g5v0d10v5#dbody = 4.330838e-11
m.xm9.msky130_fd_pr__nfet_g5v0d10v5#sbody = 2.537688e-11
m.xm10.msky130_fd_pr__nfet_g5v0d10v5#body = 2.292168e-11
m.xm10.msky130_fd_pr__nfet_g5v0d10v5#dbody = 4.337487e-11
m.xm10.msky130_fd_pr__nfet_g5v0d10v5#sbody = 2.539018e-11
m.xm11.msky130_fd_pr__pfet_g5v0d10v5#body = 2.100000e+00
m.xm11.msky130_fd_pr__pfet_g5v0d10v5#dbody = 2.100000e+00
m.xm11.msky130_fd_pr__pfet_g5v0d10v5#sbody = 2.100000e+00
m.xm12.msky130_fd_pr__pfet_g5v0d10v5#body = 2.100000e+00
m.xm12.msky130_fd_pr__pfet_g5v0d10v5#dbody = 2.100000e+00
m.xm12.msky130_fd_pr__pfet_g5v0d10v5#sbody = 2.100000e+00
m.xm13.msky130_fd_pr__nfet_g5v0d10v5#body = 5.317493e-12
m.xm13.msky130_fd_pr__nfet_g5v0d10v5#dbody = 1.329367e-11
m.xm13.msky130_fd_pr__nfet_g5v0d10v5#sbody = 2.658813e-12
m.xm14.msky130_fd_pr__pfet_g5v0d10v5#body = 2.100000e+00
m.xm14.msky130_fd_pr__pfet_g5v0d10v5#dbody = 2.100000e+00
m.xm14.msky130_fd_pr__pfet_g5v0d10v5#sbody = 2.100000e+00
m.xm15.msky130_fd_pr__nfet_g5v0d10v5#body = 1.186720e-15
m.xm15.msky130_fd_pr__nfet_g5v0d10v5#dbody = 2.966745e-15
m.xm15.msky130_fd_pr__nfet_g5v0d10v5#sbody = 5.934141e-16
m.xm16.msky130_fd_pr__nfet_g5v0d10v5#body = 5.128219e-11
m.xm16.msky130_fd_pr__nfet_g5v0d10v5#dbody = 8.874742e-11
m.xm16.msky130_fd_pr__nfet_g5v0d10v5#sbody = 6.509916e-11
m.xm17.msky130_fd_pr__pfet_g5v0d10v5#body = 2.100000e+00
m.xm17.msky130_fd_pr__pfet_g5v0d10v5#dbody = 2.100000e+00
m.xm17.msky130_fd_pr__pfet_g5v0d10v5#sbody = 2.100000e+00
m.xm18.msky130_fd_pr__nfet_g5v0d10v5#body = 5.778146e-12
m.xm18.msky130_fd_pr__nfet_g5v0d10v5#dbody = 1.444530e-11
m.xm18.msky130_fd_pr__nfet_g5v0d10v5#sbody = 2.889141e-12
m.xm19.msky130_fd_pr__nfet_g5v0d10v5#body = 2.476368e-11
m.xm19.msky130_fd_pr__nfet_g5v0d10v5#dbody = 4.509832e-11
m.xm19.msky130_fd_pr__nfet_g5v0d10v5#sbody = 2.919271e-11
m.xm20.msky130_fd_pr__nfet_g5v0d10v5#body = 1.431195e-11
m.xm20.msky130_fd_pr__nfet_g5v0d10v5#dbody = 3.577980e-11
m.xm20.msky130_fd_pr__nfet_g5v0d10v5#sbody = 7.156052e-12
m.xm22.msky130_fd_pr__nfet_g5v0d10v5#body = 1.169916e-11
m.xm22.msky130_fd_pr__nfet_g5v0d10v5#dbody = 2.924779e-11
m.xm22.msky130_fd_pr__nfet_g5v0d10v5#sbody = 5.849688e-12
m.xm24.msky130_fd_pr__pfet_g5v0d10v5#body = 2.100000e+00
m.xm24.msky130_fd_pr__pfet_g5v0d10v5#dbody = 2.100000e+00
m.xm24.msky130_fd_pr__pfet_g5v0d10v5#sbody = 2.100000e+00
m.xm26.msky130_fd_pr__pfet_g5v0d10v5#body = 2.100000e+00
m.xm26.msky130_fd_pr__pfet_g5v0d10v5#dbody = 2.100000e+00
m.xm26.msky130_fd_pr__pfet_g5v0d10v5#sbody = 2.100000e+00
mir = 8.762455e-01
net1 = 6.368431e-01
net2 = 2.286945e-06
net3 = 7.099134e-01
net4 = 2.484232e-01
net5 = 8.844061e-01
net6 = 9.369997e-01
net7 = 7.098221e-01
net8 = 9.841302e-01
net9 = 9.820024e-01
net10 = 2.648437e-01
net11 = 3.016586e-01
net12 = 3.016586e-01
net13 = 0.000000e+00
out = 3.016586e-01
pos = 1.203097e+00
q.xq2.qsky130_fd_pr__pnp_05v5_w0p68l0p68#collcx = 2.804540e-03
q.xq3.qsky130_fd_pr__pnp_05v5_w0p68l0p68#collcx = 3.567882e-04
q.xq4.qsky130_fd_pr__pnp_05v5_w0p68l0p68#collcx = 3.567882e-04
q.xq8.qsky130_fd_pr__pnp_05v5_w0p68l0p68#collcx = 3.567882e-04
q.xq10.qsky130_fd_pr__pnp_05v5_w0p68l0p68#collcx = 3.567882e-04
q.xq12.qsky130_fd_pr__pnp_05v5_w0p68l0p68#collcx = 3.567882e-04
q.xq14.qsky130_fd_pr__pnp_05v5_w0p68l0p68#collcx = 3.567882e-04
q.xq16.qsky130_fd_pr__pnp_05v5_w0p68l0p68#collcx = 3.567882e-04
q.xq18.qsky130_fd_pr__pnp_05v5_w0p68l0p68#collcx = 3.567882e-04
vb = 9.843443e-01
vdd = 2.100000e+00
vs#branch = -1.00684e-01
vt#branch = 0.000000e+00
xc1.a = 0.000000e+00
xc1.b1 = 0.000000e+00
xc3.a = 3.016586e-01
xc3.b1 = 3.016586e-01
xr1.xsky130_fd_pr__res_xhigh_po_0p69.ra = 7.156522e-01
xr2.xsky130_fd_pr__res_xhigh_po_0p69.ra = 7.157434e-01
xr3.xsky130_fd_pr__res_xhigh_po_0p69.ra = 3.502177e-03
xr4.xsky130_fd_pr__res_xhigh_po_0p69.ra = 6.392060e-01
xr5.xsky130_fd_pr__res_xhigh_po_0p69.ra = 3.501700e-03
xr6.xsky130_fd_pr__res_xhigh_po_0p69.ra = 6.176168e-03
xr7.xsky130_fd_pr__res_xhigh_po_0p69.ra = 3.016586e-01
xr8.xsky130_fd_pr__res_xhigh_po_0p69.ra = 1.213361e+00
xr9.xsky130_fd_pr__res_xhigh_po_0p69.ra = 1.076657e-02
Doing analysis at TEMP = 85.000000 and TNOM = 27.000000


No. of Data Rows : 91
Note: Starting true gmin stepping
Trying gmin =   1.0000E-03 Note: One successful gmin step
Trying gmin =   1.0000E-04 Note: One successful gmin step
Trying gmin =   1.0000E-05 Note: One successful gmin step
Trying gmin =   1.0000E-06 Note: One successful gmin step
Trying gmin =   1.0000E-07 Note: One successful gmin step
Trying gmin =   1.0000E-08 Note: One successful gmin step
Trying gmin =   1.0000E-09 Note: One successful gmin step
Trying gmin =   1.0000E-10 Note: One successful gmin step
Trying gmin =   1.0000E-11 Note: One successful gmin step
Trying gmin =   1.0000E-12 Note: One successful gmin step
Trying gmin =   1.0000E-12 Note: One successful gmin step
Note: True gmin stepping completed
 Reference value :  1.20000e+00Note: Starting true gmin stepping
Trying gmin =   1.0000E-03 Note: One successful gmin step
Trying gmin =   1.0000E-04 Note: One successful gmin step
Trying gmin =   1.0000E-05 Note: One successful gmin step
Trying gmin =   1.0000E-06 Note: One successful gmin step
Trying gmin =   1.0000E-07 Note: One successful gmin step
Trying gmin =   1.0000E-08 Note: One successful gmin step
Trying gmin =   1.0000E-09 Note: One successful gmin step
Trying gmin =   1.0000E-10 Note: One successful gmin step
Trying gmin =   1.0000E-11 Note: One successful gmin step
Trying gmin =   1.0000E-12 Note: One successful gmin step
Trying gmin =   1.0000E-12 Note: One successful gmin step
Note: True gmin stepping completed
pm                  =  9.740237e+01
Doing analysis at TEMP = 85.000000 and TNOM = 27.000000


No. of Data Rows : 91
psrr100             =  -4.156285e+01
psrr100k            =  -1.480736e+01
Doing analysis at TEMP = 85.000000 and TNOM = 27.000000


No. of Data Rows : 86
temp_coeff = 1.313094e+02
Doing analysis at TEMP = 85.000000 and TNOM = 27.000000


No. of Data Rows : 141
vldo_sup_2          =  1.779837e+00
vldo_sup_2_8        =  1.812014e+00
line_reg = 4.022125e-02
Note: No ".plot", ".print", or ".fourier" lines; no simulations run
vin                 =  1.985230e+00
dropout = 2.212300e-01
