 Reference value :  0.00000e+00
No compatibility mode selected!


Circuit: * ldo netlist 

Doing analysis at TEMP = 27.000000 and TNOM = 27.000000


No. of Data Rows : 1
bg_out = 1.195702e+00
inn = 1.228740e+00
inp = 1.228699e+00
l1#branch = 0.000000e+00
ldo_out = 1.798015e+00
m.xm1.msky130_fd_pr__nfet_g5v0d10v5#body = 1.593768e-11
m.xm1.msky130_fd_pr__nfet_g5v0d10v5#dbody = 3.338735e-11
m.xm1.msky130_fd_pr__nfet_g5v0d10v5#sbody = 1.442570e-11
m.xm2.msky130_fd_pr__pfet_g5v0d10v5#body = 2.300000e+00
m.xm2.msky130_fd_pr__pfet_g5v0d10v5#dbody = 2.300000e+00
m.xm2.msky130_fd_pr__pfet_g5v0d10v5#sbody = 2.300000e+00
m.xm3.msky130_fd_pr__pfet_g5v0d10v5#body = 2.300000e+00
m.xm3.msky130_fd_pr__pfet_g5v0d10v5#dbody = 2.300000e+00
m.xm3.msky130_fd_pr__pfet_g5v0d10v5#sbody = 2.300000e+00
m.xm4.msky130_fd_pr__pfet_g5v0d10v5#body = 2.300000e+00
m.xm4.msky130_fd_pr__pfet_g5v0d10v5#dbody = 2.300000e+00
m.xm4.msky130_fd_pr__pfet_g5v0d10v5#sbody = 2.300000e+00
m.xm5.msky130_fd_pr__pfet_g5v0d10v5#body = 2.300000e+00
m.xm5.msky130_fd_pr__pfet_g5v0d10v5#dbody = 2.300000e+00
m.xm5.msky130_fd_pr__pfet_g5v0d10v5#sbody = 2.300000e+00
m.xm6.msky130_fd_pr__nfet_g5v0d10v5#body = 1.218362e-11
m.xm6.msky130_fd_pr__nfet_g5v0d10v5#dbody = 3.045903e-11
m.xm6.msky130_fd_pr__nfet_g5v0d10v5#sbody = 6.091812e-12
m.xm7.msky130_fd_pr__pfet_g5v0d10v5#body = 2.300000e+00
m.xm7.msky130_fd_pr__pfet_g5v0d10v5#dbody = 2.300000e+00
m.xm7.msky130_fd_pr__pfet_g5v0d10v5#sbody = 2.300000e+00
m.xm8.msky130_fd_pr__pfet_g5v0d10v5#body = 2.300000e+00
m.xm8.msky130_fd_pr__pfet_g5v0d10v5#dbody = 2.300000e+00
m.xm8.msky130_fd_pr__pfet_g5v0d10v5#sbody = 2.300000e+00
m.xm9.msky130_fd_pr__nfet_g5v0d10v5#body = 1.661846e-11
m.xm9.msky130_fd_pr__nfet_g5v0d10v5#dbody = 3.606295e-11
m.xm9.msky130_fd_pr__nfet_g5v0d10v5#sbody = 1.379242e-11
m.xm10.msky130_fd_pr__nfet_g5v0d10v5#body = 1.642150e-11
m.xm10.msky130_fd_pr__nfet_g5v0d10v5#dbody = 3.557057e-11
m.xm10.msky130_fd_pr__nfet_g5v0d10v5#sbody = 1.369394e-11
m.xm11.msky130_fd_pr__pfet_g5v0d10v5#body = 2.300000e+00
m.xm11.msky130_fd_pr__pfet_g5v0d10v5#dbody = 2.300000e+00
m.xm11.msky130_fd_pr__pfet_g5v0d10v5#sbody = 2.300000e+00
m.xm12.msky130_fd_pr__pfet_g5v0d10v5#body = 2.300000e+00
m.xm12.msky130_fd_pr__pfet_g5v0d10v5#dbody = 2.300000e+00
m.xm12.msky130_fd_pr__pfet_g5v0d10v5#sbody = 2.300000e+00
m.xm13.msky130_fd_pr__nfet_g5v0d10v5#body = 2.740239e-12
m.xm13.msky130_fd_pr__nfet_g5v0d10v5#dbody = 6.850586e-12
m.xm13.msky130_fd_pr__nfet_g5v0d10v5#sbody = 1.370129e-12
m.xm14.msky130_fd_pr__pfet_g5v0d10v5#body = 2.300000e+00
m.xm14.msky130_fd_pr__pfet_g5v0d10v5#dbody = 2.300000e+00
m.xm14.msky130_fd_pr__pfet_g5v0d10v5#sbody = 2.300000e+00
m.xm15.msky130_fd_pr__nfet_g5v0d10v5#body = 1.168169e-16
m.xm15.msky130_fd_pr__nfet_g5v0d10v5#dbody = 2.920367e-16
m.xm15.msky130_fd_pr__nfet_g5v0d10v5#sbody = 5.841393e-17
m.xm16.msky130_fd_pr__nfet_g5v0d10v5#body = 4.411798e-11
m.xm16.msky130_fd_pr__nfet_g5v0d10v5#dbody = 7.956773e-11
m.xm16.msky130_fd_pr__nfet_g5v0d10v5#sbody = 5.278623e-11
m.xm17.msky130_fd_pr__pfet_g5v0d10v5#body = 2.300000e+00
m.xm17.msky130_fd_pr__pfet_g5v0d10v5#dbody = 2.300000e+00
m.xm17.msky130_fd_pr__pfet_g5v0d10v5#sbody = 2.300000e+00
m.xm18.msky130_fd_pr__nfet_g5v0d10v5#body = 1.412340e-11
m.xm18.msky130_fd_pr__nfet_g5v0d10v5#dbody = 3.530848e-11
m.xm18.msky130_fd_pr__nfet_g5v0d10v5#sbody = 7.061711e-12
m.xm19.msky130_fd_pr__nfet_g5v0d10v5#body = 1.599878e-11
m.xm19.msky130_fd_pr__nfet_g5v0d10v5#dbody = 3.354009e-11
m.xm19.msky130_fd_pr__nfet_g5v0d10v5#sbody = 1.445624e-11
m.xm20.msky130_fd_pr__nfet_g5v0d10v5#body = 1.275271e-11
m.xm20.msky130_fd_pr__nfet_g5v0d10v5#dbody = 3.188176e-11
m.xm20.msky130_fd_pr__nfet_g5v0d10v5#sbody = 6.376366e-12
m.xm22.msky130_fd_pr__nfet_g5v0d10v5#body = 3.231141e-12
m.xm22.msky130_fd_pr__nfet_g5v0d10v5#dbody = 8.077846e-12
m.xm22.msky130_fd_pr__nfet_g5v0d10v5#sbody = 1.615575e-12
m.xm24.msky130_fd_pr__pfet_g5v0d10v5#body = 2.300000e+00
m.xm24.msky130_fd_pr__pfet_g5v0d10v5#dbody = 2.300000e+00
m.xm24.msky130_fd_pr__pfet_g5v0d10v5#sbody = 2.300000e+00
m.xm26.msky130_fd_pr__pfet_g5v0d10v5#body = 2.300000e+00
m.xm26.msky130_fd_pr__pfet_g5v0d10v5#dbody = 2.300000e+00
m.xm26.msky130_fd_pr__pfet_g5v0d10v5#sbody = 2.300000e+00
mir = 1.016391e+00
net1 = 7.305943e-01
net2 = 8.987616e-06
net3 = 7.898437e-01
net4 = 2.579248e-01
net5 = 1.021279e+00
net6 = 9.741227e-01
net7 = 7.898015e-01
net8 = 1.094152e+00
net9 = 1.109908e+00
net10 = 2.190869e-01
net11 = 1.129739e+00
net12 = 1.129739e+00
net13 = 0.000000e+00
out = 1.129739e+00
pos = 1.195858e+00
q.xq2.qsky130_fd_pr__pnp_05v5_w0p68l0p68#collcx = 1.951959e-03
q.xq3.qsky130_fd_pr__pnp_05v5_w0p68l0p68#collcx = 2.473456e-04
q.xq4.qsky130_fd_pr__pnp_05v5_w0p68l0p68#collcx = 2.473456e-04
q.xq8.qsky130_fd_pr__pnp_05v5_w0p68l0p68#collcx = 2.473456e-04
q.xq10.qsky130_fd_pr__pnp_05v5_w0p68l0p68#collcx = 2.473456e-04
q.xq12.qsky130_fd_pr__pnp_05v5_w0p68l0p68#collcx = 2.473456e-04
q.xq14.qsky130_fd_pr__pnp_05v5_w0p68l0p68#collcx = 2.473456e-04
q.xq16.qsky130_fd_pr__pnp_05v5_w0p68l0p68#collcx = 2.473456e-04
q.xq18.qsky130_fd_pr__pnp_05v5_w0p68l0p68#collcx = 2.473456e-04
vb = 1.020084e+00
vdd = 2.300000e+00
vs#branch = -1.01095e-02
vt#branch = 0.000000e+00
xc1.a = 0.000000e+00
xc1.b1 = 0.000000e+00
xc3.a = 1.129739e+00
xc3.b1 = 1.129739e+00
xr1.xsky130_fd_pr__res_xhigh_po_0p69.ra = 7.973685e-01
xr2.xsky130_fd_pr__res_xhigh_po_0p69.ra = 7.974107e-01
xr3.xsky130_fd_pr__res_xhigh_po_0p69.ra = 5.144599e-03
xr4.xsky130_fd_pr__res_xhigh_po_0p69.ra = 7.331183e-01
xr5.xsky130_fd_pr__res_xhigh_po_0p69.ra = 5.144306e-03
xr6.xsky130_fd_pr__res_xhigh_po_0p69.ra = 8.045595e-03
xr7.xsky130_fd_pr__res_xhigh_po_0p69.ra = 1.129739e+00
xr8.xsky130_fd_pr__res_xhigh_po_0p69.ra = 1.209243e+00
xr9.xsky130_fd_pr__res_xhigh_po_0p69.ra = 1.403874e-02
Doing analysis at TEMP = 27.000000 and TNOM = 27.000000


No. of Data Rows : 91
Note: Starting true gmin stepping
Trying gmin =   1.0000E-03 Note: One successful gmin step
Trying gmin =   1.0000E-04 Note: One successful gmin step
Trying gmin =   1.0000E-05 Note: One successful gmin step
Trying gmin =   1.0000E-06 Note: One successful gmin step
Trying gmin =   1.0000E-07 Note: One successful gmin step
Trying gmin =   1.0000E-08 Warning: Further gmin increment
Trying gmin =   5.6234E-08 Warning: Further gmin increment
Trying gmin =   8.6596E-08 Note: One successful gmin step
Trying gmin =   6.9783E-08 Note: One successful gmin step
Trying gmin =   5.0481E-08 Warning: Further gmin increment
Trying gmin =   6.4357E-08 Warning: Further gmin increment
Trying gmin =   6.8385E-08 Note: One successful gmin step
Trying gmin =   6.6340E-08 Note: One successful gmin step
Trying gmin =   6.3387E-08 Warning: Further gmin increment
Trying gmin =   6.5589E-08 Warning: Further gmin increment
Trying gmin =   6.6152E-08 Note: One successful gmin step
Trying gmin =   6.5870E-08 Note: One successful gmin step
Trying gmin =   6.5450E-08 Warning: Further gmin increment
Trying gmin =   6.5765E-08 Note: One successful gmin step
Trying gmin =   6.5607E-08 Warning: Further gmin increment
Trying gmin =   6.5725E-08 Note: One successful gmin step
Trying gmin =   6.5666E-08 Warning: Further gmin increment
Trying gmin =   6.5710E-08 Warning: Further gmin increment
Trying gmin =   6.5721E-08 Note: One successful gmin step
Trying gmin =   6.5716E-08 Warning: Further gmin increment
Trying gmin =   6.5720E-08 Note: One successful gmin step
Trying gmin =   6.5718E-08 Warning: Last gmin step failed
Warning: True gmin stepping failed
Note: Starting dynamic gmin stepping
Trying gmin =   1.0000E-03 Note: One successful gmin step
Trying gmin =   1.0000E-04 Note: One successful gmin step
Trying gmin =   1.0000E-05 Warning: Further gmin increment
Trying gmin =   5.6234E-05 Note: One successful gmin step
Trying gmin =   2.3714E-05 Note: One successful gmin step
Trying gmin =   6.4938E-06 Warning: Further gmin increment
Trying gmin =   1.7154E-05 Note: One successful gmin step
Trying gmin =   1.0554E-05 Warning: Further gmin increment
Trying gmin =   1.5193E-05 Note: One successful gmin step
Trying gmin =   1.2663E-05 Note: One successful gmin step
Trying gmin =   9.6358E-06 Warning: Further gmin increment
Trying gmin =   1.1827E-05 Note: One successful gmin step
Trying gmin =   1.0675E-05 Note: One successful gmin step
Trying gmin =   9.1546E-06 Note: One successful gmin step
Trying gmin =   7.2699E-06 Note: One successful gmin step
Trying gmin =   5.1447E-06 Note: One successful gmin step
Trying gmin =   3.0627E-06 Warning: Further gmin increment
Trying gmin =   4.5190E-06 Note: One successful gmin step
Trying gmin =   3.9694E-06 Note: One successful gmin step
Trying gmin =   3.2678E-06 Note: One successful gmin step
Trying gmin =   2.4409E-06 Note: One successful gmin step
Trying gmin =   1.5758E-06 Note: One successful gmin step
Trying gmin =   8.1735E-07 Warning: Further gmin increment
Trying gmin =   1.3373E-06 Warning: Further gmin increment
Trying gmin =   1.5124E-06 Note: One successful gmin step
Trying gmin =   1.4222E-06 Note: One successful gmin step
Trying gmin =   1.2968E-06 Note: One successful gmin step
Trying gmin =   1.1291E-06 Note: One successful gmin step
Trying gmin =   9.1732E-07 Note: One successful gmin step
Trying gmin =   6.7176E-07 Note: One successful gmin step
Trying gmin =   4.2098E-07 Note: One successful gmin step
Trying gmin =   2.0884E-07 Note: One successful gmin step
Trying gmin =   7.2974E-08 Note: One successful gmin step
Trying gmin =   1.5073E-08 Note: One successful gmin step
Trying gmin =   1.5073E-09 Note: One successful gmin step
Trying gmin =   1.5073E-10 Note: One successful gmin step
Trying gmin =   1.5073E-11 Note: One successful gmin step
Trying gmin =   1.5073E-12 Note: One successful gmin step
Trying gmin =   1.0000E-12 Note: One successful gmin step
Note: Dynamic gmin stepping completed
 Reference value :  2.80000e+00Note: Starting true gmin stepping
Trying gmin =   1.0000E-03 Note: One successful gmin step
Trying gmin =   1.0000E-04 Note: One successful gmin step
Trying gmin =   1.0000E-05 Note: One successful gmin step
Trying gmin =   1.0000E-06 Note: One successful gmin step
Trying gmin =   1.0000E-07 Note: One successful gmin step
Trying gmin =   1.0000E-08 Note: One successful gmin step
Trying gmin =   1.0000E-09 Warning: Further gmin increment
Trying gmin =   5.6234E-09 Note: One successful gmin step
Trying gmin =   2.3714E-09 Note: One successful gmin step
Trying gmin =   6.4938E-10 Warning: Further gmin increment
Trying gmin =   1.7154E-09 Note: One successful gmin step
Trying gmin =   1.0554E-09 Note: One successful gmin step
Trying gmin =   8.2788E-10 Note: One successful gmin step
Trying gmin =   5.7513E-10 Note: One successful gmin step
Trying gmin =   3.3301E-10 Note: One successful gmin step
Trying gmin =   1.4672E-10 Warning: Further gmin increment
Trying gmin =   2.7131E-10 Warning: Further gmin increment
Trying gmin =   3.1638E-10 Warning: Further gmin increment
Trying gmin =   3.2878E-10 Warning: Further gmin increment
Trying gmin =   3.3195E-10 Note: One successful gmin step
Trying gmin =   3.3036E-10 Note: One successful gmin step
Trying gmin =   3.2799E-10 Warning: Further gmin increment
Trying gmin =   3.2976E-10 Note: One successful gmin step
Trying gmin =   3.2887E-10 Warning: Further gmin increment
Trying gmin =   3.2954E-10 Note: One successful gmin step
Trying gmin =   3.2921E-10 Note: One successful gmin step
Trying gmin =   3.2871E-10 Warning: Further gmin increment
Trying gmin =   3.2908E-10 Note: One successful gmin step
Trying gmin =   3.2889E-10 Warning: Further gmin increment
Trying gmin =   3.2904E-10 Warning: Further gmin increment
Trying gmin =   3.2907E-10 Note: One successful gmin step
Trying gmin =   3.2905E-10 Note: One successful gmin step
Trying gmin =   3.2903E-10 Warning: Further gmin increment
Trying gmin =   3.2905E-10 Note: One successful gmin step
Trying gmin =   3.2904E-10 Warning: Last gmin step failed
Warning: True gmin stepping failed
Note: Starting dynamic gmin stepping
Trying gmin =   1.0000E-03 Note: One successful gmin step
Trying gmin =   1.0000E-04 Note: One successful gmin step
Trying gmin =   1.0000E-05 Note: One successful gmin step
Trying gmin =   1.0000E-06 Note: One successful gmin step
Trying gmin =   1.0000E-07 Note: One successful gmin step
Trying gmin =   1.0000E-08 Warning: Further gmin increment
Trying gmin =   5.6234E-08 Note: One successful gmin step
Trying gmin =   2.3714E-08 Note: One successful gmin step
Trying gmin =   6.4938E-09 Note: One successful gmin step
Trying gmin =   3.3982E-09 Note: One successful gmin step
Trying gmin =   1.2864E-09 Note: One successful gmin step
Trying gmin =   2.9961E-10 Note: One successful gmin step
Trying gmin =   3.3678E-11 Note: One successful gmin step
Trying gmin =   3.3678E-12 Note: One successful gmin step
Trying gmin =   1.0000E-12 Note: One successful gmin step
Note: Dynamic gmin stepping completed
 Reference value :  1.32000e+00Note: Starting true gmin stepping
Trying gmin =   1.0000E-03 Note: One successful gmin step
Trying gmin =   1.0000E-04 Note: One successful gmin step
Trying gmin =   1.0000E-05 Note: One successful gmin step
Trying gmin =   1.0000E-06 Note: One successful gmin step
Trying gmin =   1.0000E-07 Note: One successful gmin step
Trying gmin =   1.0000E-08 Note: One successful gmin step
Trying gmin =   1.0000E-09 Note: One successful gmin step
Trying gmin =   1.0000E-10 Warning: Further gmin increment
Trying gmin =   5.6234E-10 Note: One successful gmin step
Trying gmin =   2.3714E-10 Warning: Further gmin increment
Trying gmin =   4.5316E-10 Note: One successful gmin step
Trying gmin =   3.2781E-10 Note: One successful gmin step
Trying gmin =   2.0169E-10 Warning: Further gmin increment
Trying gmin =   2.9033E-10 Note: One successful gmin step
Trying gmin =   2.4199E-10 Warning: Further gmin increment
Trying gmin =   2.7741E-10 Note: One successful gmin step
Trying gmin =   2.5909E-10 Note: One successful gmin step
Trying gmin =   2.3386E-10 Warning: Further gmin increment
Trying gmin =   2.5254E-10 Note: One successful gmin step
Trying gmin =   2.4302E-10 Note: One successful gmin step
Trying gmin =   2.3386E-10 Note: One successful gmin step
Trying gmin =   2.2076E-10 Note: One successful gmin step
Trying gmin =   2.0248E-10 Note: One successful gmin step
Trying gmin =   1.7786E-10 Note: One successful gmin step
Trying gmin =   1.4642E-10 Note: One successful gmin step
Trying gmin =   1.0937E-10 Note: One successful gmin step
Trying gmin =   7.0606E-11 Note: One successful gmin step
Trying gmin =   3.6623E-11 Note: One successful gmin step
Trying gmin =   1.3681E-11 Note: One successful gmin step
Trying gmin =   3.1237E-12 Note: One successful gmin step
Trying gmin =   1.0000E-12 Note: One successful gmin step
Note: True gmin stepping completed
 Reference value :  1.20000e+00pm                  =  -9.278432e+01
Doing analysis at TEMP = 27.000000 and TNOM = 27.000000


No. of Data Rows : 91
psrr100             =  -7.884554e+01
psrr100k            =  -2.724065e+01
Doing analysis at TEMP = 27.000000 and TNOM = 27.000000


No. of Data Rows : 86
temp_coeff = 1.176766e+02
Doing analysis at TEMP = 27.000000 and TNOM = 27.000000


No. of Data Rows : 141
vldo_sup_2          =  1.797890e+00
vldo_sup_2_8        =  1.798036e+00
line_reg = 1.825000e-04
Note: No ".plot", ".print", or ".fourier" lines; no simulations run
vin                 =  1.785405e+00
dropout = 2.140500e-02
