Note: Starting true gmin stepping
Trying gmin =   1.0000E-03 Note: One successful gmin step
Trying gmin =   1.0000E-04 Note: One successful gmin step
Trying gmin =   1.0000E-05 Note: One successful gmin step
Trying gmin =   1.0000E-06 Note: One successful gmin step
Trying gmin =   1.0000E-07 Warning: Further gmin increment
Trying gmin =   5.6234E-07 Note: One successful gmin step
Trying gmin =   2.3714E-07 Note: One successful gmin step
Trying gmin =   6.4938E-08 Warning: Further gmin increment
Trying gmin =   1.7154E-07 Note: One successful gmin step
Trying gmin =   1.0554E-07 Note: One successful gmin step
Trying gmin =   8.2788E-08 Note: One successful gmin step
Trying gmin =   5.7513E-08 Note: One successful gmin step
Trying gmin =   3.3301E-08 Warning: Further gmin increment
Trying gmin =   5.0169E-08 Note: One successful gmin step
Trying gmin =   4.3764E-08 Note: One successful gmin step
Trying gmin =   3.8176E-08 Note: One successful gmin step
Trying gmin =   3.1103E-08 Note: One successful gmin step
Trying gmin =   2.2873E-08 Note: One successful gmin step
Trying gmin =   1.4424E-08 Note: One successful gmin step
Trying gmin =   7.2235E-09 Note: One successful gmin step
Trying gmin =   2.5600E-09 Note: One successful gmin step
Trying gmin =   5.4011E-10 Note: One successful gmin step
Trying gmin =   5.4011E-11 Note: One successful gmin step
Trying gmin =   5.4011E-12 Note: One successful gmin step
Trying gmin =   1.0000E-12 Note: One successful gmin step
Note: True gmin stepping completed
 Reference value :  0.00000e+00
No compatibility mode selected!


Circuit: * ldo netlist 

Doing analysis at TEMP = 0.000000 and TNOM = 27.000000


No. of Data Rows : 1
bg_out = 5.782868e-01
inn = 7.980702e-01
inp = 7.976039e-01
l1#branch = 1.387779e-17
ldo_out = 9.548500e-01
m.xm1.msky130_fd_pr__nfet_g5v0d10v5#body = 1.084162e-11
m.xm1.msky130_fd_pr__nfet_g5v0d10v5#dbody = 2.602349e-11
m.xm1.msky130_fd_pr__nfet_g5v0d10v5#sbody = 6.501365e-12
m.xm2.msky130_fd_pr__pfet_g5v0d10v5#body = 2.100000e+00
m.xm2.msky130_fd_pr__pfet_g5v0d10v5#dbody = 2.100000e+00
m.xm2.msky130_fd_pr__pfet_g5v0d10v5#sbody = 2.100000e+00
m.xm3.msky130_fd_pr__pfet_g5v0d10v5#body = 2.100000e+00
m.xm3.msky130_fd_pr__pfet_g5v0d10v5#dbody = 2.100000e+00
m.xm3.msky130_fd_pr__pfet_g5v0d10v5#sbody = 2.100000e+00
m.xm4.msky130_fd_pr__pfet_g5v0d10v5#body = 2.100000e+00
m.xm4.msky130_fd_pr__pfet_g5v0d10v5#dbody = 2.100000e+00
m.xm4.msky130_fd_pr__pfet_g5v0d10v5#sbody = 2.100000e+00
m.xm5.msky130_fd_pr__pfet_g5v0d10v5#body = 2.100000e+00
m.xm5.msky130_fd_pr__pfet_g5v0d10v5#dbody = 2.100000e+00
m.xm5.msky130_fd_pr__pfet_g5v0d10v5#sbody = 2.100000e+00
m.xm6.msky130_fd_pr__nfet_g5v0d10v5#body = 1.079905e-11
m.xm6.msky130_fd_pr__nfet_g5v0d10v5#dbody = 2.699763e-11
m.xm6.msky130_fd_pr__nfet_g5v0d10v5#sbody = 5.399530e-12
m.xm7.msky130_fd_pr__pfet_g5v0d10v5#body = 2.100000e+00
m.xm7.msky130_fd_pr__pfet_g5v0d10v5#dbody = 2.100000e+00
m.xm7.msky130_fd_pr__pfet_g5v0d10v5#sbody = 2.100000e+00
m.xm8.msky130_fd_pr__pfet_g5v0d10v5#body = 2.100000e+00
m.xm8.msky130_fd_pr__pfet_g5v0d10v5#dbody = 2.100000e+00
m.xm8.msky130_fd_pr__pfet_g5v0d10v5#sbody = 2.100000e+00
m.xm9.msky130_fd_pr__nfet_g5v0d10v5#body = 1.372763e-11
m.xm9.msky130_fd_pr__nfet_g5v0d10v5#dbody = 3.428618e-11
m.xm9.msky130_fd_pr__nfet_g5v0d10v5#sbody = 6.896707e-12
m.xm10.msky130_fd_pr__nfet_g5v0d10v5#body = 1.098788e-11
m.xm10.msky130_fd_pr__nfet_g5v0d10v5#dbody = 2.743680e-11
m.xm10.msky130_fd_pr__nfet_g5v0d10v5#sbody = 5.526831e-12
m.xm11.msky130_fd_pr__pfet_g5v0d10v5#body = 2.100000e+00
m.xm11.msky130_fd_pr__pfet_g5v0d10v5#dbody = 2.100000e+00
m.xm11.msky130_fd_pr__pfet_g5v0d10v5#sbody = 2.100000e+00
m.xm12.msky130_fd_pr__pfet_g5v0d10v5#body = 2.100000e+00
m.xm12.msky130_fd_pr__pfet_g5v0d10v5#dbody = 2.100000e+00
m.xm12.msky130_fd_pr__pfet_g5v0d10v5#sbody = 2.100000e+00
m.xm13.msky130_fd_pr__nfet_g5v0d10v5#body = 1.644526e-14
m.xm13.msky130_fd_pr__nfet_g5v0d10v5#dbody = 4.111304e-14
m.xm13.msky130_fd_pr__nfet_g5v0d10v5#sbody = 8.222735e-15
m.xm14.msky130_fd_pr__pfet_g5v0d10v5#body = 2.100000e+00
m.xm14.msky130_fd_pr__pfet_g5v0d10v5#dbody = 2.100000e+00
m.xm14.msky130_fd_pr__pfet_g5v0d10v5#sbody = 2.100000e+00
m.xm15.msky130_fd_pr__nfet_g5v0d10v5#body = 6.221360e-13
m.xm15.msky130_fd_pr__nfet_g5v0d10v5#dbody = 1.555340e-12
m.xm15.msky130_fd_pr__nfet_g5v0d10v5#sbody = 3.110681e-13
m.xm16.msky130_fd_pr__nfet_g5v0d10v5#body = 3.622600e-11
m.xm16.msky130_fd_pr__nfet_g5v0d10v5#dbody = 7.061311e-11
m.xm16.msky130_fd_pr__nfet_g5v0d10v5#sbody = 3.806487e-11
m.xm17.msky130_fd_pr__pfet_g5v0d10v5#body = 2.100000e+00
m.xm17.msky130_fd_pr__pfet_g5v0d10v5#dbody = 2.100000e+00
m.xm17.msky130_fd_pr__pfet_g5v0d10v5#sbody = 2.100000e+00
m.xm18.msky130_fd_pr__nfet_g5v0d10v5#body = 1.475238e-11
m.xm18.msky130_fd_pr__nfet_g5v0d10v5#dbody = 3.688095e-11
m.xm18.msky130_fd_pr__nfet_g5v0d10v5#sbody = 7.376198e-12
m.xm19.msky130_fd_pr__nfet_g5v0d10v5#body = 1.152088e-11
m.xm19.msky130_fd_pr__nfet_g5v0d10v5#dbody = 2.772165e-11
m.xm19.msky130_fd_pr__nfet_g5v0d10v5#sbody = 6.840996e-12
m.xm20.msky130_fd_pr__nfet_g5v0d10v5#body = 1.074893e-11
m.xm20.msky130_fd_pr__nfet_g5v0d10v5#dbody = 2.687232e-11
m.xm20.msky130_fd_pr__nfet_g5v0d10v5#sbody = 5.374471e-12
m.xm22.msky130_fd_pr__nfet_g5v0d10v5#body = 5.403079e-13
m.xm22.msky130_fd_pr__nfet_g5v0d10v5#dbody = 1.350768e-12
m.xm22.msky130_fd_pr__nfet_g5v0d10v5#sbody = 2.701552e-13
m.xm24.msky130_fd_pr__pfet_g5v0d10v5#body = 2.100000e+00
m.xm24.msky130_fd_pr__pfet_g5v0d10v5#dbody = 2.100000e+00
m.xm24.msky130_fd_pr__pfet_g5v0d10v5#sbody = 2.100000e+00
m.xm26.msky130_fd_pr__pfet_g5v0d10v5#body = 2.100000e+00
m.xm26.msky130Note: Starting true gmin stepping
Trying gmin =   1.0000E-03 Note: One successful gmin step
Trying gmin =   1.0000E-04 Note: One successful gmin step
Trying gmin =   1.0000E-05 Note: One successful gmin step
Trying gmin =   1.0000E-06 Note: One successful gmin step
Trying gmin =   1.0000E-07 Warning: Further gmin increment
Trying gmin =   5.6234E-07 Note: One successful gmin step
Trying gmin =   2.3714E-07 Note: One successful gmin step
Trying gmin =   6.4938E-08 Warning: Further gmin increment
Trying gmin =   1.7154E-07 Note: One successful gmin step
Trying gmin =   1.0554E-07 Note: One successful gmin step
Trying gmin =   8.2788E-08 Note: One successful gmin step
Trying gmin =   5.7513E-08 Note: One successful gmin step
Trying gmin =   3.3301E-08 Warning: Further gmin increment
Trying gmin =   5.0169E-08 Note: One successful gmin step
Trying gmin =   4.3764E-08 Note: One successful gmin step
Trying gmin =   3.8176E-08 Note: One successful gmin step
Trying gmin =   3.1103E-08 Note: One successful gmin step
Trying gmin =   2.2873E-08 Note: One successful gmin step
Trying gmin =   1.4424E-08 Note: One successful gmin step
Trying gmin =   7.2235E-09 Note: One successful gmin step
Trying gmin =   2.5600E-09 Note: One successful gmin step
Trying gmin =   5.4011E-10 Note: One successful gmin step
Trying gmin =   5.4011E-11 Note: One successful gmin step
Trying gmin =   5.4011E-12 Note: One successful gmin step
Trying gmin =   1.0000E-12 Note: One successful gmin step
Note: True gmin stepping completed
_fd_pr__pfet_g5v0d10v5#dbody = 2.100000e+00
m.xm26.msky130_fd_pr__pfet_g5v0d10v5#sbody = 2.100000e+00
mir = 8.241025e-01
net1 = 6.118187e-01
net2 = 4.975797e-02
net3 = 6.123754e-01
net4 = 4.321837e-02
net5 = 8.784436e-01
net6 = 8.639167e-01
net7 = 6.119045e-01
net8 = 8.777112e-01
net9 = 1.096891e+00
net10 = 1.315533e-03
net11 = 1.180189e+00
net12 = 1.180189e+00
net13 = 0.000000e+00
out = 1.180189e+00
pos = 5.810858e-01
q.xq2.qsky130_fd_pr__pnp_05v5_w0p68l0p68#collcx = 3.662789e-07
q.xq3.qsky130_fd_pr__pnp_05v5_w0p68l0p68#collcx = 3.579955e-07
q.xq4.qsky130_fd_pr__pnp_05v5_w0p68l0p68#collcx = 3.579955e-07
q.xq8.qsky130_fd_pr__pnp_05v5_w0p68l0p68#collcx = 3.579955e-07
q.xq10.qsky130_fd_pr__pnp_05v5_w0p68l0p68#collcx = 3.579955e-07
q.xq12.qsky130_fd_pr__pnp_05v5_w0p68l0p68#collcx = 3.579955e-07
q.xq14.qsky130_fd_pr__pnp_05v5_w0p68l0p68#collcx = 3.579955e-07
q.xq16.qsky130_fd_pr__pnp_05v5_w0p68l0p68#collcx = 3.579955e-07
q.xq18.qsky130_fd_pr__pnp_05v5_w0p68l0p68#collcx = 3.579955e-07
vb = 8.599126e-01
vdd = 2.100000e+00
vs#branch = -8.22604e-05
vt#branch = 0.000000e+00
xc1.a = 0.000000e+00
xc1.b1 = 0.000000e+00
xc3.a = 1.180189e+00
xc3.b1 = 1.180189e+00
xr1.xsky130_fd_pr__res_xhigh_po_0p69.ra = 6.146249e-01
xr2.xsky130_fd_pr__res_xhigh_po_0p69.ra = 6.150958e-01
xr3.xsky130_fd_pr__res_xhigh_po_0p69.ra = 2.791847e-03
xr4.xsky130_fd_pr__res_xhigh_po_0p69.ra = 6.118212e-01
xr5.xsky130_fd_pr__res_xhigh_po_0p69.ra = 2.789595e-03
xr6.xsky130_fd_pr__res_xhigh_po_0p69.ra = 2.816198e-03
xr7.xsky130_fd_pr__res_xhigh_po_0p69.ra = 1.180189e+00
xr8.xsky130_fd_pr__res_xhigh_po_0p69.ra = 5.854609e-01
xr9.xsky130_fd_pr__res_xhigh_po_0p69.ra = 4.440004e-03
Doing analysis at TEMP = 0.000000 and TNOM = 27.000000


No. of Data Rows : 91
Note: Starting true gmin stepping
Trying gmin =   1.0000E-03 Note: One successful gmin step
Trying gmin =   1.0000E-04 Note: One successful gmin step
Trying gmin =   1.0000E-05 Note: One successful gmin step
Trying gmin =   1.0000E-06 Note: One successful gmin step
Trying gmin =   1.0000E-07 Warning: Further gmin increment
Trying gmin =   5.6234E-07 Note: One successful gmin step
Trying gmin =   2.3714E-07 Note: One successful gmin step
Trying gmin =   6.4938E-08 Warning: Further gmin increment
Trying gmin =   1.7154E-07 Note: One successful gmin step
Trying gmin =   1.0554E-07 Note: One successful gmin step
Trying gmin =   8.2788E-08 Note: One successful gmin step
Trying gmin =   5.7513E-08 Note: One successful gmin step
Trying gmin =   3.3301E-08 Warning: Further gmin increment
Trying gmin =   5.0169E-08 Note: One successful gmin step
Trying gmin =   4.3764E-08 Note: One successful gmin step
Trying gmin =   3.8176E-08 Note: One successful gmin step
Trying gmin =   3.1103E-08 Note: One successful gmin step
Trying gmin =   2.2873E-08 Note: One successful gmin step
Trying gmin =   1.4424E-08 Note: One successful gmin step
Trying gmin =   7.2235E-09 Note: One successful gmin step
Trying gmin =   2.5600E-09 Note: One successful gmin step
Trying gmin =   5.4011E-10 Note: One successful gmin step
Trying gmin =   5.4011E-11 Note: One successful gmin step
Trying gmin =   5.4011E-12 Note: One successful gmin step
Trying gmin =   1.0000E-12 Note: One successful gmin step
Note: True gmin stepping completed
 Reference value :  1.00000e+00Note: Starting true gmin stepping
Trying gmin =   1.0000E-03 Note: One successful gmin step
Trying gmin =   1.0000E-04 Note: One successful gmin step
Trying gmin =   1.0000E-05 Note: One successful gmin step
Trying gmin =   1.0000E-06 Note: One successful gmin step
Trying gmin =   1.0000E-07 Note: One successful gmin step
Trying gmin =   1.0000E-08 Warning: Further gmin increment
Trying gmin =   5.6234E-08 Note: One successful gmin step
Trying gmin =   2.3714E-08 Warning: Further gmin increment
Trying gmin =   4.5316E-08 Note: One successful gmin step
Trying gmin =   3.2781E-08 Warning: Further gmin increment
Trying gmin =   4.1792E-08 Warning: Further gmin increment
Trying gmin =   4.4408E-08 Note: One successful gmin step
Trying gmin =   4.3080E-08 Warning: Further gmin increment
Trying gmin =   4.4072E-08 Note: One successful gmin step
Trying gmin =   4.3573E-08 Note: One successful gmin step
Trying gmin =   4.2836E-08 Warning: Further gmin increment
Trying gmin =   4.3388E-08 Warning: Further gmin increment
Trying gmin =   4.3527E-08 Warning: Further gmin increment
Trying gmin =   4.3562E-08 Warning: Further gmin increment
Trying gmin =   4.3570E-08 Note: One successful gmin step
Trying gmin =   4.3566E-08 Warning: Further gmin increment
Trying gmin =   4.3569E-08 Note: One successful gmin step
Trying gmin =   4.3568E-08 Warning: Last gmin step failed
Warning: True gmin stepping failed
Note: Starting dynamic gmin stepping
Trying gmin =   1.0000E-03 Note: One successful gmin step
Trying gmin =   1.0000E-04 Note: One successful gmin step
Trying gmin =   1.0000E-05 Note: One successful gmin step
Trying gmin =   1.0000E-06 Warning: Further gmin increment
Trying gmin =   5.6234E-06 Note: One successful gmin step
Trying gmin =   3.1623E-06 Note: One successful gmin step
Trying gmin =   1.3335E-06 Warning: Further gmin increment
Trying gmin =   2.5483E-06 Note: One successful gmin step
Trying gmin =   1.8434E-06 Note: One successful gmin step
Trying gmin =   1.1342E-06 Warning: Further gmin increment
Trying gmin =   1.6326E-06 Note: One successful gmin step
Trying gmin =   1.3608E-06 Warning: Further gmin increment
Trying gmin =   1.5600E-06 Note: One successful gmin step
Trying gmin =   1.4570E-06 Note: One successful gmin step
Trying gmin =   1.3151E-06 Warning: Further gmin increment
Trying gmin =   1.4201E-06 Note: One successful gmin step
Trying gmin =   1.3666E-06 Warning: Further gmin increment
Trying gmin =   1.4066E-06 Note: One successful gmin step
Trying gmin =   1.3864E-06 Note: One successful gmin step
Trying gmin =   1.3568E-06 Warning: Further gmin increment
Trying gmin =   1.3790E-06 Warning: Further gmin increment
Trying gmin =   1.3846E-06 Note: One successful gmin step
Trying gmin =   1.3818E-06 Note: One successful gmin step
Trying gmin =   1.3776E-06 Note: One successful gmin step
Trying gmin =   1.3713E-06 Note: One successful gmin step
Trying gmin =   1.3620E-06 Note: One successful gmin step
Trying gmin =   1.3481E-06 Note: One successful gmin step
Trying gmin =   1.3275E-06 Note: One successful gmin step
Trying gmin =   1.2972E-06 Note: One successful gmin step
Trying gmin =   1.2531E-06 Note: One successful gmin step
Trying gmin =   1.1897E-06 Note: One successful gmin step
Trying gmin =   1.1005E-06 Note: One successful gmin step
Trying gmin =   9.7916E-07 Note: One successful gmin step
Trying gmin =   8.2176E-07 Note: One successful gmin step
Trying gmin =   6.3180E-07 Note: One successful gmin step
Trying gmin =   4.2593E-07 Note: One successful gmin step
Trying gmin =   2.3576E-07 Note: One successful gmin step
Trying gmin =   9.7088E-08 Note: One successful gmin step
Trying gmin =   2.5657E-08 Note: One successful gmin step
Trying gmin =   3.4856E-09 Note: One successful gmin step
Trying gmin =   3.4856E-10 Note: One successful gmin step
Trying gmin =   3.4856E-11 Note: One successful gmin step
Trying gmin =   3.4856E-12 Note: One successful gmin step
Trying gmin =   1.0000E-12 Note: One successful gmin step
Note: Dynamic gmin stepping completed
 Reference value :  2.80000e+00Note: Starting true gmin stepping
Trying gmin =   1.0000E-03 Note: One successful gmin step
Trying gmin =   1.0000E-04 Note: One successful gmin step
Trying gmin =   1.0000E-05 Note: One successful gmin step
Trying gmin =   1.0000E-06 Note: One successful gmin step
Trying gmin =   1.0000E-07 Note: One successful gmin step
Trying gmin =   1.0000E-08 Warning: Further gmin increment
Trying gmin =   5.6234E-08 Note: One successful gmin step
Trying gmin =   3.1623E-08 Note: One successful gmin step
Trying gmin =   1.7783E-08 Note: One successful gmin step
Trying gmin =   7.4989E-09 Note: One successful gmin step
Trying gmin =   2.0535E-09 Note: One successful gmin step
Trying gmin =   2.9427E-10 Note: One successful gmin step
Trying gmin =   2.9427E-11 Note: One successful gmin step
Trying gmin =   2.9427E-12 Note: One successful gmin step
Trying gmin =   1.0000E-12 Note: One successful gmin step
Note: True gmin stepping completed
Note: Starting true gmin stepping
Trying gmin =   1.0000E-03 Note: One successful gmin step
Trying gmin =   1.0000E-04 Note: One successful gmin step
Trying gmin =   1.0000E-05 Note: One successful gmin step
Trying gmin =   1.0000E-06 Note: One successful gmin step
Trying gmin =   1.0000E-07 Note: One successful gmin step
Trying gmin =   1.0000E-08 Warning: Further gmin increment
Trying gmin =   5.6234E-08 Note: One successful gmin step
Trying gmin =   3.1623E-08 Warning: Further gmin increment
Trying gmin =   4.8697E-08 Note: One successful gmin step
Trying gmin =   3.9242E-08 Note: One successful gmin step
Trying gmin =   2.8387E-08 Note: One successful gmin step
Trying gmin =   1.7466E-08 Note: One successful gmin step
Trying gmin =   8.4291E-09 Note: One successful gmin step
Trying gmin =   2.8260E-09 Note: One successful gmin step
Trying gmin =   5.4860E-10 Note: One successful gmin step
Trying gmin =   5.4860E-11 Note: One successful gmin step
Trying gmin =   5.4860E-12 Note: One successful gmin step
Trying gmin =   1.0000E-12 Note: One successful gmin step
Note: True gmin stepping completed
 Reference value :  1.54000e+00Note: Starting true gmin stepping
Trying gmin =   1.0000E-03 Note: One successful gmin step
Trying gmin =   1.0000E-04 Note: One successful gmin step
Trying gmin =   1.0000E-05 Note: One successful gmin step
Trying gmin =   1.0000E-06 Note: One successful gmin step
Trying gmin =   1.0000E-07 Note: One successful gmin step
Trying gmin =   1.0000E-08 Note: One successful gmin step
Trying gmin =   1.0000E-09 Note: One successful gmin step
Trying gmin =   1.0000E-10 Note: One successful gmin step
Trying gmin =   3.1623E-11 Note: One successful gmin step
Trying gmin =   5.6234E-12 Note: One successful gmin step
Trying gmin =   1.0000E-12 Note: One successful gmin step
Note: True gmin stepping completed
Note: Starting true gmin stepping
Trying gmin =   1.0000E-03 Note: One successful gmin step
Trying gmin =   1.0000E-04 Note: One successful gmin step
Trying gmin =   1.0000E-05 Note: One successful gmin step
Trying gmin =   1.0000E-06 Note: One successful gmin step
Trying gmin =   1.0000E-07 Note: One successful gmin step
Trying gmin =   1.0000E-08 Note: One successful gmin step
Trying gmin =   1.0000E-09 Note: One successful gmin step
Trying gmin =   1.0000E-10 Note: One successful gmin step
Trying gmin =   1.0000E-11 Note: One successful gmin step
Trying gmin =   1.0000E-12 Warning: Further gmin increment
Trying gmin =   5.6234E-12 Note: One successful gmin step
Trying gmin =   2.3714E-12 Note: One successful gmin step
Trying gmin =   1.0000E-12 Warning: Further gmin increment
Trying gmin =   1.9110E-12 Note: One successful gmin step
Trying gmin =   1.3824E-12 Note: One successful gmin step
Trying gmin =   1.0000E-12 Warning: Further gmin increment
Trying gmin =   1.2749E-12 Note: One successful gmin step
Trying gmin =   1.1291E-12 Note: One successful gmin step
Trying gmin =   1.0000E-12 Note: One successful gmin step
Warning: True gmin stepping failed
Note: Starting dynamic gmin stepping
Trying gmin =   1.0000E-03 Note: One successful gmin step
Trying gmin =   1.0000E-04 Note: One successful gmin step
Trying gmin =   1.0000E-05 Note: One successful gmin step
Trying gmin =   1.0000E-06 Note: One successful gmin step
Trying gmin =   1.0000E-07 Note: One successful gmin step
Trying gmin =   1.0000E-08 Note: One successful gmin step
Trying gmin =   1.0000E-09 Note: One successful gmin step
Trying gmin =   1.0000E-10 Note: One successful gmin step
Trying gmin =   1.0000E-11 Note: One successful gmin step
Trying gmin =   1.0000E-12 Note: One successful gmin step
Trying gmin =   1.0000E-12 Note: One successful gmin step
Note: Dynamic gmin stepping completed
 Reference value :  4.00000e-02pm                  =  6.184395e+01
Doing analysis at TEMP = 0.000000 and TNOM = 27.000000


No. of Data Rows : 91
psrr100             =  -3.135454e+01
psrr100k            =  -5.803034e+00
Doing analysis at TEMP = 0.000000 and TNOM = 27.000000


No. of Data Rows : 86
temp_coeff = 3.869146e+01
Doing analysis at TEMP = 0.000000 and TNOM = 27.000000


No. of Data Rows : 141
vldo_sup_2          =  1.805325e+00
vldo_sup_2_8        =  1.804440e+00
line_reg = 1.106250e-03
Note: No ".plot", ".print", or ".fourier" lines; no simulations run
vin                 =  1.764152e+00
dropout = 1.520000e-04
