 Reference value :  0.00000e+00
No compatibility mode selected!


Circuit: * ldo netlist 

Doing analysis at TEMP = 27.000000 and TNOM = 27.000000


No. of Data Rows : 1
bg_out = 1.097423e+00
inn = 1.141786e+00
inp = 1.141721e+00
l1#branch = 0.000000e+00
ldo_out = 1.803693e+00
m.xm1.msky130_fd_pr__nfet_g5v0d10v5#body = 1.382016e-11
m.xm1.msky130_fd_pr__nfet_g5v0d10v5#dbody = 2.887874e-11
m.xm1.msky130_fd_pr__nfet_g5v0d10v5#sbody = 1.258175e-11
m.xm2.msky130_fd_pr__pfet_g5v0d10v5#body = 2.100000e+00
m.xm2.msky130_fd_pr__pfet_g5v0d10v5#dbody = 2.100000e+00
m.xm2.msky130_fd_pr__pfet_g5v0d10v5#sbody = 2.100000e+00
m.xm3.msky130_fd_pr__pfet_g5v0d10v5#body = 2.100000e+00
m.xm3.msky130_fd_pr__pfet_g5v0d10v5#dbody = 2.100000e+00
m.xm3.msky130_fd_pr__pfet_g5v0d10v5#sbody = 2.100000e+00
m.xm4.msky130_fd_pr__pfet_g5v0d10v5#body = 2.100000e+00
m.xm4.msky130_fd_pr__pfet_g5v0d10v5#dbody = 2.100000e+00
m.xm4.msky130_fd_pr__pfet_g5v0d10v5#sbody = 2.100000e+00
m.xm5.msky130_fd_pr__pfet_g5v0d10v5#body = 2.100000e+00
m.xm5.msky130_fd_pr__pfet_g5v0d10v5#dbody = 2.100000e+00
m.xm5.msky130_fd_pr__pfet_g5v0d10v5#sbody = 2.100000e+00
m.xm6.msky130_fd_pr__nfet_g5v0d10v5#body = 1.179307e-11
m.xm6.msky130_fd_pr__nfet_g5v0d10v5#dbody = 2.948267e-11
m.xm6.msky130_fd_pr__nfet_g5v0d10v5#sbody = 5.896539e-12
m.xm7.msky130_fd_pr__pfet_g5v0d10v5#body = 2.100000e+00
m.xm7.msky130_fd_pr__pfet_g5v0d10v5#dbody = 2.100000e+00
m.xm7.msky130_fd_pr__pfet_g5v0d10v5#sbody = 2.100000e+00
m.xm8.msky130_fd_pr__pfet_g5v0d10v5#body = 2.100000e+00
m.xm8.msky130_fd_pr__pfet_g5v0d10v5#dbody = 2.100000e+00
m.xm8.msky130_fd_pr__pfet_g5v0d10v5#sbody = 2.100000e+00
m.xm9.msky130_fd_pr__nfet_g5v0d10v5#body = 1.446519e-11
m.xm9.msky130_fd_pr__nfet_g5v0d10v5#dbody = 3.160284e-11
m.xm9.msky130_fd_pr__nfet_g5v0d10v5#sbody = 1.179273e-11
m.xm10.msky130_fd_pr__nfet_g5v0d10v5#body = 1.435011e-11
m.xm10.msky130_fd_pr__nfet_g5v0d10v5#dbody = 3.131513e-11
m.xm10.msky130_fd_pr__nfet_g5v0d10v5#sbody = 1.173519e-11
m.xm11.msky130_fd_pr__pfet_g5v0d10v5#body = 2.100000e+00
m.xm11.msky130_fd_pr__pfet_g5v0d10v5#dbody = 2.100000e+00
m.xm11.msky130_fd_pr__pfet_g5v0d10v5#sbody = 2.100000e+00
m.xm12.msky130_fd_pr__pfet_g5v0d10v5#body = 2.100000e+00
m.xm12.msky130_fd_pr__pfet_g5v0d10v5#dbody = 2.100000e+00
m.xm12.msky130_fd_pr__pfet_g5v0d10v5#sbody = 2.100000e+00
m.xm13.msky130_fd_pr__nfet_g5v0d10v5#body = 2.278713e-12
m.xm13.msky130_fd_pr__nfet_g5v0d10v5#dbody = 5.696771e-12
m.xm13.msky130_fd_pr__nfet_g5v0d10v5#sbody = 1.139367e-12
m.xm14.msky130_fd_pr__pfet_g5v0d10v5#body = 2.100000e+00
m.xm14.msky130_fd_pr__pfet_g5v0d10v5#dbody = 2.100000e+00
m.xm14.msky130_fd_pr__pfet_g5v0d10v5#sbody = 2.100000e+00
m.xm15.msky130_fd_pr__nfet_g5v0d10v5#body = 7.645067e-17
m.xm15.msky130_fd_pr__nfet_g5v0d10v5#dbody = 1.911230e-16
m.xm15.msky130_fd_pr__nfet_g5v0d10v5#sbody = 3.822907e-17
m.xm16.msky130_fd_pr__nfet_g5v0d10v5#body = 4.053102e-11
m.xm16.msky130_fd_pr__nfet_g5v0d10v5#dbody = 7.277420e-11
m.xm16.msky130_fd_pr__nfet_g5v0d10v5#sbody = 4.881885e-11
m.xm17.msky130_fd_pr__pfet_g5v0d10v5#body = 2.100000e+00
m.xm17.msky130_fd_pr__pfet_g5v0d10v5#dbody = 2.100000e+00
m.xm17.msky130_fd_pr__pfet_g5v0d10v5#sbody = 2.100000e+00
m.xm18.msky130_fd_pr__nfet_g5v0d10v5#body = 6.121042e-12
m.xm18.msky130_fd_pr__nfet_g5v0d10v5#dbody = 1.530259e-11
m.xm18.msky130_fd_pr__nfet_g5v0d10v5#sbody = 3.060533e-12
m.xm19.msky130_fd_pr__nfet_g5v0d10v5#body = 1.390699e-11
m.xm19.msky130_fd_pr__nfet_g5v0d10v5#dbody = 2.909579e-11
m.xm19.msky130_fd_pr__nfet_g5v0d10v5#sbody = 1.262516e-11
m.xm20.msky130_fd_pr__nfet_g5v0d10v5#body = 1.206639e-11
m.xm20.msky130_fd_pr__nfet_g5v0d10v5#dbody = 3.016597e-11
m.xm20.msky130_fd_pr__nfet_g5v0d10v5#sbody = 6.033209e-12
m.xm22.msky130_fd_pr__nfet_g5v0d10v5#body = 2.838548e-12
m.xm22.msky130_fd_pr__nfet_g5v0d10v5#dbody = 7.096365e-12
m.xm22.msky130_fd_pr__nfet_g5v0d10v5#sbody = 1.419279e-12
m.xm24.msky130_fd_pr__pfet_g5v0d10v5#body = 2.100000e+00
m.xm24.msky130_fd_pr__pfet_g5v0d10v5#dbody = 2.100000e+00
m.xm24.msky130_fd_pr__pfet_g5v0d10v5#sbody = 2.100000e+00
m.xm26.msky130_fd_pr__pfet_g5v0d10v5#body = 2.100000e+00
m.xm26.msky130_fd_pr__pfet_g5v0d10v5#dbody = 2.100000e+00
m.xm26.msky130_fd_pr__pfet_g5v0d10v5#sbody = 2.100000e+00
mir = 8.783987e-01
net1 = 7.262484e-01
net2 = 5.882269e-06
net3 = 7.859432e-01
net4 = 2.265192e-01
net5 = 8.853444e-01
net6 = 9.428807e-01
net7 = 7.858765e-01
net8 = 9.653641e-01
net9 = 9.745709e-01
net10 = 1.821666e-01
net11 = 4.895527e-01
net12 = 4.895527e-01
net13 = 0.000000e+00
out = 4.895527e-01
pos = 1.097523e+00
q.xq2.qsky130_fd_pr__pnp_05v5_w0p68l0p68#collcx = 2.180073e-03
q.xq3.qsky130_fd_pr__pnp_05v5_w0p68l0p68#collcx = 2.746575e-04
q.xq4.qsky130_fd_pr__pnp_05v5_w0p68l0p68#collcx = 2.746575e-04
q.xq8.qsky130_fd_pr__pnp_05v5_w0p68l0p68#collcx = 2.746575e-04
q.xq10.qsky130_fd_pr__pnp_05v5_w0p68l0p68#collcx = 2.746575e-04
q.xq12.qsky130_fd_pr__pnp_05v5_w0p68l0p68#collcx = 2.746575e-04
q.xq14.qsky130_fd_pr__pnp_05v5_w0p68l0p68#collcx = 2.746575e-04
q.xq16.qsky130_fd_pr__pnp_05v5_w0p68l0p68#collcx = 2.746575e-04
q.xq18.qsky130_fd_pr__pnp_05v5_w0p68l0p68#collcx = 2.746575e-04
vb = 9.651807e-01
vdd = 2.100000e+00
vs#branch = -1.00330e-01
vt#branch = 0.000000e+00
xc1.a = 0.000000e+00
xc1.b1 = 0.000000e+00
xc3.a = 4.895527e-01
xc3.b1 = 4.895527e-01
xr1.xsky130_fd_pr__res_xhigh_po_0p69.ra = 7.913461e-01
xr2.xsky130_fd_pr__res_xhigh_po_0p69.ra = 7.914127e-01
xr3.xsky130_fd_pr__res_xhigh_po_0p69.ra = 3.785413e-03
xr4.xsky130_fd_pr__res_xhigh_po_0p69.ra = 7.280363e-01
xr5.xsky130_fd_pr__res_xhigh_po_0p69.ra = 3.785071e-03
xr6.xsky130_fd_pr__res_xhigh_po_0p69.ra = 5.806845e-03
xr7.xsky130_fd_pr__res_xhigh_po_0p69.ra = 4.895527e-01
xr8.xsky130_fd_pr__res_xhigh_po_0p69.ra = 1.106345e+00
xr9.xsky130_fd_pr__res_xhigh_po_0p69.ra = 9.107646e-03
Doing analysis at TEMP = 27.000000 and TNOM = 27.000000


No. of Data Rows : 91
Error: no such vector PM
Note: Starting true gmin stepping
Trying gmin =   1.0000E-03 Note: One successful gmin step
Trying gmin =   1.0000E-04 Note: One successful gmin step
Trying gmin =   1.0000E-05 Note: One successful gmin step
Trying gmin =   1.0000E-06 Note: One successful gmin step
Trying gmin =   1.0000E-07 Note: One successful gmin step
Trying gmin =   1.0000E-08 Warning: Further gmin increment
Trying gmin =   5.6234E-08 Warning: Further gmin increment
Trying gmin =   8.6596E-08 Warning: Further gmin increment
Trying gmin =   9.6466E-08 Warning: Further gmin increment
Trying gmin =   9.9105E-08 Note: One successful gmin step
Trying gmin =   9.7776E-08 Note: One successful gmin step
Trying gmin =   9.5818E-08 Warning: Further gmin increment
Trying gmin =   9.7283E-08 Error: -1.72239e+157, 2 out of range for ^
Warning: Further gmin increment
Trying gmin =   9.7653E-08 Warning: Further gmin increment
Trying gmin =   9.7746E-08 Note: One successful gmin step
Trying gmin =   9.7699E-08 Warning: Further gmin increment
Trying gmin =   9.7734E-08 Warning: Further gmin increment
Trying gmin =   9.7743E-08 Warning: Last gmin step failed
Warning: True gmin stepping failed
Note: Starting dynamic gmin stepping
Trying gmin =   1.0000E-03 Note: One successful gmin step
Trying gmin =   1.0000E-04 Note: One successful gmin step
Trying gmin =   1.0000E-05 Note: One successful gmin step
Trying gmin =   1.0000E-06 Note: One successful gmin step
Trying gmin =   1.0000E-07 Note: One successful gmin step
Trying gmin =   1.0000E-08 Note: One successful gmin step
Trying gmin =   1.0000E-09 Note: One successful gmin step
Trying gmin =   1.0000E-10 Note: One successful gmin step
Trying gmin =   1.0000E-11 Note: One successful gmin step
Trying gmin =   1.0000E-12 Note: One successful gmin step
Trying gmin =   1.0000E-12 Note: One successful gmin step
Note: Dynamic gmin stepping completed
 Reference value :  2.80000e+00Note: Starting true gmin stepping
Trying gmin =   1.0000E-03 Note: One successful gmin step
Trying gmin =   1.0000E-04 Note: One successful gmin step
Trying gmin =   1.0000E-05 Note: One successful gmin step
Trying gmin =   1.0000E-06 Note: One successful gmin step
Trying gmin =   1.0000E-07 Note: One successful gmin step
Trying gmin =   1.0000E-08 Note: One successful gmin step
Trying gmin =   1.0000E-09 Note: One successful gmin step
Trying gmin =   1.0000E-10 Warning: Further gmin increment
Trying gmin =   5.6234E-10 Warning: Further gmin increment
Trying gmin =   8.6596E-10 Note: One successful gmin step
Trying gmin =   7.4989E-10 Note: One successful gmin step
Trying gmin =   6.0430E-10 Note: One successful gmin step
Trying gmin =   4.3714E-10 Note: One successful gmin step
Trying gmin =   2.6896E-10 Note: One successful gmin step
Trying gmin =   1.2980E-10 Note: One successful gmin step
Trying gmin =   4.3518E-11 Note: One successful gmin step
Trying gmin =   8.4481E-12 Note: One successful gmin step
Trying gmin =   1.0000E-12 Note: One successful gmin step
Note: True gmin stepping completed
 Reference value :  1.26000e+00Note: Starting true gmin stepping
Trying gmin =   1.0000E-03 Note: One successful gmin step
Trying gmin =   1.0000E-04 Note: One successful gmin step
Trying gmin =   1.0000E-05 Note: One successful gmin step
Trying gmin =   1.0000E-06 Note: One successful gmin step
Trying gmin =   1.0000E-07 Note: One successful gmin step
Trying gmin =   1.0000E-08 Note: One successful gmin step
Trying gmin =   3.1623E-09 Note: One successful gmin step
Trying gmin =   5.6234E-10 Warning: Further gmin increment
Trying gmin =   2.0535E-09 Note: One successful gmin step
Trying gmin =   1.0746E-09 Note: One successful gmin step
Trying gmin =   5.6234E-10 Note: One successful gmin step
Trying gmin =   2.9427E-10 Note: One successful gmin step
Trying gmin =   1.1140E-10 Note: One successful gmin step
Trying gmin =   2.5946E-11 Note: One successful gmin step
Trying gmin =   2.9164E-12 Note: One successful gmin step
Trying gmin =   1.0000E-12 Note: One successful gmin step
Note: True gmin stepping completed
 Reference value : -1.94983e-15
Error: measure  pm  (AT) : out of interval
 meas ac pm find p when vdb(ldo_out)=0 failed!

Doing analysis at TEMP = 27.000000 and TNOM = 27.000000


No. of Data Rows : 91
psrr100             =  -6.378489e+01
psrr100k            =  -1.899748e+01
Doing analysis at TEMP = 27.000000 and TNOM = 27.000000


No. of Data Rows : 86
temp_coeff = 3.397999e+01
Doing analysis at TEMP = 27.000000 and TNOM = 27.000000


No. of Data Rows : 141
vldo_sup_2          =  1.803431e+00
vldo_sup_2_8        =  1.803690e+00
line_reg = 3.237500e-04
Note: No ".plot", ".print", or ".fourier" lines; no simulations run
vin                 =  1.932460e+00
dropout = 1.684600e-01
