Note: Starting true gmin stepping
Trying gmin =   1.0000E-03 Note: One successful gmin step
Trying gmin =   1.0000E-04 Note: One successful gmin step
Trying gmin =   1.0000E-05 Note: One successful gmin step
Trying gmin =   1.0000E-06 Note: One successful gmin step
Trying gmin =   1.0000E-07 Note: One successful gmin step
Trying gmin =   3.1623E-08 Warning: Further gmin increment
Trying gmin =   7.4989E-08 Warning: Further gmin increment
Trying gmin =   9.3057E-08 Warning: Further gmin increment
Trying gmin =   9.8217E-08 Note: One successful gmin step
Trying gmin =   9.5602E-08 Note: One successful gmin step
Trying gmin =   9.4321E-08 Note: One successful gmin step
Trying gmin =   9.2432E-08 Note: One successful gmin step
Trying gmin =   8.9668E-08 Note: One successful gmin step
Trying gmin =   8.5676E-08 Note: One successful gmin step
Trying gmin =   8.0020E-08 Note: One successful gmin step
Trying gmin =   7.2228E-08 Note: One successful gmin step
Trying gmin =   6.1939E-08 Note: One successful gmin step
Trying gmin =   4.9187E-08 Note: One successful gmin step
Trying gmin =   3.4808E-08 Note: One successful gmin step
Trying gmin =   2.0722E-08 Note: One successful gmin step
Trying gmin =   9.5180E-09 Note: One successful gmin step
Trying gmin =   2.9629E-09 Note: One successful gmin step
Trying gmin =   5.1462E-10 Note: One successful gmin step
Trying gmin =   5.1462E-11 Note: One successful gmin step
Trying gmin =   5.1462E-12 Note: One successful gmin step
Trying gmin =   1.0000E-12 Note: One successful gmin step
Note: True gmin stepping completed
 Reference value :  0.00000e+00
No compatibility mode selected!


Circuit: * ldo netlist 

Doing analysis at TEMP = 0.000000 and TNOM = 27.000000


No. of Data Rows : 1
bg_out = 1.099111e+00
inn = 1.181153e+00
inp = 1.181107e+00
l1#branch = 0.000000e+00
ldo_out = 1.807195e+00
m.xm1.msky130_fd_pr__nfet_g5v0d10v5#body = 1.896591e-11
m.xm1.msky130_fd_pr__nfet_g5v0d10v5#dbody = 4.278643e-11
m.xm1.msky130_fd_pr__nfet_g5v0d10v5#sbody = 1.411129e-11
m.xm2.msky130_fd_pr__pfet_g5v0d10v5#body = 2.500000e+00
m.xm2.msky130_fd_pr__pfet_g5v0d10v5#dbody = 2.500000e+00
m.xm2.msky130_fd_pr__pfet_g5v0d10v5#sbody = 2.500000e+00
m.xm3.msky130_fd_pr__pfet_g5v0d10v5#body = 2.500000e+00
m.xm3.msky130_fd_pr__pfet_g5v0d10v5#dbody = 2.500000e+00
m.xm3.msky130_fd_pr__pfet_g5v0d10v5#sbody = 2.500000e+00
m.xm4.msky130_fd_pr__pfet_g5v0d10v5#body = 2.500000e+00
m.xm4.msky130_fd_pr__pfet_g5v0d10v5#dbody = 2.500000e+00
m.xm4.msky130_fd_pr__pfet_g5v0d10v5#sbody = 2.500000e+00
m.xm5.msky130_fd_pr__pfet_g5v0d10v5#body = 2.500000e+00
m.xm5.msky130_fd_pr__pfet_g5v0d10v5#dbody = 2.500000e+00
m.xm5.msky130_fd_pr__pfet_g5v0d10v5#sbody = 2.500000e+00
m.xm6.msky130_fd_pr__nfet_g5v0d10v5#body = 1.272568e-11
m.xm6.msky130_fd_pr__nfet_g5v0d10v5#dbody = 3.181418e-11
m.xm6.msky130_fd_pr__nfet_g5v0d10v5#sbody = 6.362843e-12
m.xm7.msky130_fd_pr__pfet_g5v0d10v5#body = 2.500000e+00
m.xm7.msky130_fd_pr__pfet_g5v0d10v5#dbody = 2.500000e+00
m.xm7.msky130_fd_pr__pfet_g5v0d10v5#sbody = 2.500000e+00
m.xm8.msky130_fd_pr__pfet_g5v0d10v5#body = 2.500000e+00
m.xm8.msky130_fd_pr__pfet_g5v0d10v5#dbody = 2.500000e+00
m.xm8.msky130_fd_pr__pfet_g5v0d10v5#sbody = 2.500000e+00
m.xm9.msky130_fd_pr__nfet_g5v0d10v5#body = 1.940491e-11
m.xm9.msky130_fd_pr__nfet_g5v0d10v5#dbody = 4.556430e-11
m.xm9.msky130_fd_pr__nfet_g5v0d10v5#sbody = 1.264960e-11
m.xm10.msky130_fd_pr__nfet_g5v0d10v5#body = 1.897498e-11
m.xm10.msky130_fd_pr__nfet_g5v0d10v5#dbody = 4.448995e-11
m.xm10.msky130_fd_pr__nfet_g5v0d10v5#sbody = 1.243464e-11
m.xm11.msky130_fd_pr__pfet_g5v0d10v5#body = 2.500000e+00
m.xm11.msky130_fd_pr__pfet_g5v0d10v5#dbody = 2.500000e+00
m.xm11.msky130_fd_pr__pfet_g5v0d10v5#sbody = 2.500000e+00
m.xm12.msky130_fd_pr__pfet_g5v0d10v5#body = 2.500000e+00
m.xm12.msky130_fd_pr__pfet_g5v0d10v5#dbody = 2.500000e+00
m.xm12.msky130_fd_pr__pfet_g5v0d10v5#sbody = 2.500000e+00
m.xm13.msky130_fd_pr__nfet_g5v0d10v5#body = 1.473554e-12
m.xm13.msky130_fd_pr__nfet_g5v0d10v5#dbody = 3.683875e-12
m.xm13.msky130_fd_pr__nfet_g5v0d10v5#sbody = 7.367855e-13
m.xm14.msky130_fd_pr__pfet_g5v0d10v5#body = 2.500000e+00
m.xm14.msky130_fd_pr__pfet_g5v0d10v5#dbody = 2.500000e+00
m.xm14.msky130_fd_pr__pfet_g5v0d10v5#sbody = 2.500000e+00
m.xm15.msky130_fd_pr__nfet_g5v0d10v5#body = 4.008826e-15
m.xm15.msky130_fd_pr__nfet_g5v0d10v5#dbody = 1.002198e-14
m.xm15.msky130_fd_pr__nfet_g5v0d10v5#sbody = 2.004504e-15
m.xm16.msky130_fd_pr__nfet_g5v0d10v5#body = 4.601453e-11
m.xm16.msky130_fd_pr__nfet_g5v0d10v5#dbody = 8.550738e-11
m.xm16.msky130_fd_pr__nfet_g5v0d10v5#sbody = 5.253620e-11
m.xm17.msky130_fd_pr__pfet_g5v0d10v5#body = 2.500000e+00
m.xm17.msky130_fd_pr__pfet_g5v0d10v5#dbody = 2.500000e+00
m.xm17.msky130_fd_pr__pfet_g5v0d10v5#sbody = 2.500000e+00
m.xm18.msky130_fd_pr__nfet_g5v0d10v5#body = 2.288180e-11
m.xm18.msky130_fd_pr__nfet_g5v0d10v5#dbody = 5.559600e-11
m.xm18.msky130_fd_pr__nfet_g5v0d10v5#sbody = 1.144091e-11
m.xm19.msky130_fd_pr__nfet_g5v0d10v5#body = 1.905338e-11
m.xm19.msky130_fd_pr__nfet_g5v0d10v5#dbody = 4.300509e-11
m.xm19.msky130_fd_pr__nfet_g5v0d10v5#sbody = 1.415502e-11
m.xm20.msky130_fd_pr__nfet_g5v0d10v5#body = 1.336002e-11
m.xm20.msky130_fd_pr__nfet_g5v0d10v5#dbody = 3.340003e-11
m.xm20.msky130_fd_pr__nfet_g5v0d10v5#sbody = 6.680021e-12
m.xm22.msky130_fd_pr__nfet_g5v0d10v5#body = 2.314202e-12
m.xm22.msky130_fd_pr__nfet_g5v0d10v5#dbody = 5.785501e-12
m.xm22.msky130_fd_pr__nfet_g5v0d10v5#sbody = 1.157106e-12
m.xm24.msky130_fd_pr__pfet_g5v0d10v5#body = 2.500000e+00
m.xm24.msky130_fd_pr__pfet_g5v0d10v5#dbody = 2.500000e+00
m.xm24.msky130_fd_pr__pfet_g5v0d10v5#sbody = 2.500000e+00
m.xm26.msky130_fd_pr__pfet_g5v0d10v5#body = 2.500000e+00
m.xm26.msky130Note: Starting true gmin stepping
Trying gmin =   1.0000E-03 Note: One successful gmin step
Trying gmin =   1.0000E-04 Note: One successful gmin step
Trying gmin =   1.0000E-05 Note: One successful gmin step
Trying gmin =   1.0000E-06 Note: One successful gmin step
Trying gmin =   1.0000E-07 Note: One successful gmin step
Trying gmin =   3.1623E-08 Warning: Further gmin increment
Trying gmin =   7.4989E-08 Warning: Further gmin increment
Trying gmin =   9.3057E-08 Warning: Further gmin increment
Trying gmin =   9.8217E-08 Note: One successful gmin step
Trying gmin =   9.5602E-08 Note: One successful gmin step
Trying gmin =   9.4321E-08 Note: One successful gmin step
Trying gmin =   9.2432E-08 Note: One successful gmin step
Trying gmin =   8.9668E-08 Note: One successful gmin step
Trying gmin =   8.5676E-08 Note: One successful gmin step
Trying gmin =   8.0020E-08 Note: One successful gmin step
Trying gmin =   7.2228E-08 Note: One successful gmin step
Trying gmin =   6.1939E-08 Note: One successful gmin step
Trying gmin =   4.9187E-08 Note: One successful gmin step
Trying gmin =   3.4808E-08 Note: One successful gmin step
Trying gmin =   2.0722E-08 Note: One successful gmin step
Trying gmin =   9.5180E-09 Note: One successful gmin step
Trying gmin =   2.9629E-09 Note: One successful gmin step
Trying gmin =   5.1462E-10 Note: One successful gmin step
Trying gmin =   5.1462E-11 Note: One successful gmin step
Trying gmin =   5.1462E-12 Note: One successful gmin step
Trying gmin =   1.0000E-12 Note: One successful gmin step
Note: True gmin stepping completed
_fd_pr__pfet_g5v0d10v5#dbody = 2.500000e+00
m.xm26.msky130_fd_pr__pfet_g5v0d10v5#sbody = 2.500000e+00
mir = 1.332134e+00
net1 = 7.710525e-01
net2 = 3.205166e-04
net3 = 8.248077e-01
net4 = 1.851285e-01
net5 = 1.339131e+00
net6 = 1.018046e+00
net7 = 8.247613e-01
net8 = 1.400095e+00
net9 = 1.434471e+00
net10 = 1.178825e-01
net11 = 1.766203e+00
net12 = 1.766203e+00
net13 = 0.000000e+00
out = 1.766203e+00
pos = 1.099391e+00
q.xq2.qsky130_fd_pr__pnp_05v5_w0p68l0p68#collcx = 1.933306e-03
q.xq3.qsky130_fd_pr__pnp_05v5_w0p68l0p68#collcx = 2.434269e-04
q.xq4.qsky130_fd_pr__pnp_05v5_w0p68l0p68#collcx = 2.434269e-04
q.xq8.qsky130_fd_pr__pnp_05v5_w0p68l0p68#collcx = 2.434269e-04
q.xq10.qsky130_fd_pr__pnp_05v5_w0p68l0p68#collcx = 2.434269e-04
q.xq12.qsky130_fd_pr__pnp_05v5_w0p68l0p68#collcx = 2.434269e-04
q.xq14.qsky130_fd_pr__pnp_05v5_w0p68l0p68#collcx = 2.434269e-04
q.xq16.qsky130_fd_pr__pnp_05v5_w0p68l0p68#collcx = 2.434269e-04
q.xq18.qsky130_fd_pr__pnp_05v5_w0p68l0p68#collcx = 2.434269e-04
vb = 1.068799e+00
vdd = 2.500000e+00
vs#branch = -1.76490e-04
vt#branch = 0.000000e+00
xc1.a = 0.000000e+00
xc1.b1 = 0.000000e+00
xc3.a = 1.766203e+00
xc3.b1 = 1.766203e+00
xr1.xsky130_fd_pr__res_xhigh_po_0p69.ra = 8.276200e-01
xr2.xsky130_fd_pr__res_xhigh_po_0p69.ra = 8.276663e-01
xr3.xsky130_fd_pr__res_xhigh_po_0p69.ra = 2.082969e-03
xr4.xsky130_fd_pr__res_xhigh_po_0p69.ra = 7.718930e-01
xr5.xsky130_fd_pr__res_xhigh_po_0p69.ra = 2.082844e-03
xr6.xsky130_fd_pr__res_xhigh_po_0p69.ra = 3.039937e-03
xr7.xsky130_fd_pr__res_xhigh_po_0p69.ra = 1.766203e+00
xr8.xsky130_fd_pr__res_xhigh_po_0p69.ra = 1.104008e+00
xr9.xsky130_fd_pr__res_xhigh_po_0p69.ra = 4.766930e-03
Doing analysis at TEMP = 0.000000 and TNOM = 27.000000


No. of Data Rows : 91
Note: Starting true gmin stepping
Trying gmin =   1.0000E-03 Note: One successful gmin step
Trying gmin =   1.0000E-04 Note: One successful gmin step
Trying gmin =   1.0000E-05 Note: One successful gmin step
Trying gmin =   1.0000E-06 Note: One successful gmin step
Trying gmin =   1.0000E-07 Note: One successful gmin step
Trying gmin =   3.1623E-08 Warning: Further gmin increment
Trying gmin =   7.4989E-08 Warning: Further gmin increment
Trying gmin =   9.3057E-08 Warning: Further gmin increment
Trying gmin =   9.8217E-08 Note: One successful gmin step
Trying gmin =   9.5602E-08 Note: One successful gmin step
Trying gmin =   9.4321E-08 Note: One successful gmin step
Trying gmin =   9.2432E-08 Note: One successful gmin step
Trying gmin =   8.9668E-08 Note: One successful gmin step
Trying gmin =   8.5676E-08 Note: One successful gmin step
Trying gmin =   8.0020E-08 Note: One successful gmin step
Trying gmin =   7.2228E-08 Note: One successful gmin step
Trying gmin =   6.1939E-08 Note: One successful gmin step
Trying gmin =   4.9187E-08 Note: One successful gmin step
Trying gmin =   3.4808E-08 Note: One successful gmin step
Trying gmin =   2.0722E-08 Note: One successful gmin step
Trying gmin =   9.5180E-09 Note: One successful gmin step
Trying gmin =   2.9629E-09 Note: One successful gmin step
Trying gmin =   5.1462E-10 Note: One successful gmin step
Trying gmin =   5.1462E-11 Note: One successful gmin step
Trying gmin =   5.1462E-12 Note: One successful gmin step
Trying gmin =   1.0000E-12 Note: One successful gmin step
Note: True gmin stepping completed
 Reference value :  1.00000e+00Note: Starting true gmin stepping
Trying gmin =   1.0000E-03 Note: One successful gmin step
Trying gmin =   1.0000E-04 Note: One successful gmin step
Trying gmin =   1.0000E-05 Note: One successful gmin step
Trying gmin =   1.0000E-06 Note: One successful gmin step
Trying gmin =   1.0000E-07 Warning: Further gmin increment
Trying gmin =   5.6234E-07 Note: One successful gmin step
Trying gmin =   3.1623E-07 Note: One successful gmin step
Trying gmin =   1.3335E-07 Note: One successful gmin step
Trying gmin =   3.6517E-08 Note: One successful gmin step
Trying gmin =   1.9110E-08 Note: One successful gmin step
Trying gmin =   7.2339E-09 Note: One successful gmin step
Trying gmin =   1.6849E-09 Note: One successful gmin step
Trying gmin =   1.8938E-10 Note: One successful gmin step
Trying gmin =   1.8938E-11 Note: One successful gmin step
Trying gmin =   1.8938E-12 Note: One successful gmin step
Trying gmin =   1.0000E-12 Note: One successful gmin step
Note: True gmin stepping completed
 Reference value :  2.80000e+00pm                  =  6.632624e+01
Doing analysis at TEMP = 0.000000 and TNOM = 27.000000


No. of Data Rows : 91
psrr100             =  -5.997090e+01
psrr100k            =  -2.629900e+01
Doing analysis at TEMP = 0.000000 and TNOM = 27.000000


No. of Data Rows : 86
temp_coeff = 6.547154e+01
Doing analysis at TEMP = 0.000000 and TNOM = 27.000000


No. of Data Rows : 141
vldo_sup_2          =  2.155932e+00
vldo_sup_2_8        =  2.907252e+00
line_reg = 9.391500e-01
Note: No ".plot", ".print", or ".fourier" lines; no simulations run
vin                 =  1.541606e+00
dropout = -2.22394e-01
