 Reference value :  0.00000e+00
No compatibility mode selected!


Circuit: * ldo netlist 

Doing analysis at TEMP = 27.000000 and TNOM = 27.000000


No. of Data Rows : 1
bg_out = 1.190826e+00
inn = 1.219805e+00
inp = 1.219777e+00
l1#branch = 0.000000e+00
ldo_out = 1.791788e+00
m.xm1.msky130_fd_pr__nfet_g5v0d10v5#body = 1.577303e-11
m.xm1.msky130_fd_pr__nfet_g5v0d10v5#dbody = 3.143601e-11
m.xm1.msky130_fd_pr__nfet_g5v0d10v5#sbody = 1.588307e-11
m.xm2.msky130_fd_pr__pfet_g5v0d10v5#body = 2.100000e+00
m.xm2.msky130_fd_pr__pfet_g5v0d10v5#dbody = 2.100000e+00
m.xm2.msky130_fd_pr__pfet_g5v0d10v5#sbody = 2.100000e+00
m.xm3.msky130_fd_pr__pfet_g5v0d10v5#body = 2.100000e+00
m.xm3.msky130_fd_pr__pfet_g5v0d10v5#dbody = 2.100000e+00
m.xm3.msky130_fd_pr__pfet_g5v0d10v5#sbody = 2.100000e+00
m.xm4.msky130_fd_pr__pfet_g5v0d10v5#body = 2.100000e+00
m.xm4.msky130_fd_pr__pfet_g5v0d10v5#dbody = 2.100000e+00
m.xm4.msky130_fd_pr__pfet_g5v0d10v5#sbody = 2.100000e+00
m.xm5.msky130_fd_pr__pfet_g5v0d10v5#body = 2.100000e+00
m.xm5.msky130_fd_pr__pfet_g5v0d10v5#dbody = 2.100000e+00
m.xm5.msky130_fd_pr__pfet_g5v0d10v5#sbody = 2.100000e+00
m.xm6.msky130_fd_pr__nfet_g5v0d10v5#body = 1.134197e-11
m.xm6.msky130_fd_pr__nfet_g5v0d10v5#dbody = 2.835492e-11
m.xm6.msky130_fd_pr__nfet_g5v0d10v5#sbody = 5.670991e-12
m.xm7.msky130_fd_pr__pfet_g5v0d10v5#body = 2.100000e+00
m.xm7.msky130_fd_pr__pfet_g5v0d10v5#dbody = 2.100000e+00
m.xm7.msky130_fd_pr__pfet_g5v0d10v5#sbody = 2.100000e+00
m.xm8.msky130_fd_pr__pfet_g5v0d10v5#body = 2.100000e+00
m.xm8.msky130_fd_pr__pfet_g5v0d10v5#dbody = 2.100000e+00
m.xm8.msky130_fd_pr__pfet_g5v0d10v5#sbody = 2.100000e+00
m.xm9.msky130_fd_pr__nfet_g5v0d10v5#body = 1.645266e-11
m.xm9.msky130_fd_pr__nfet_g5v0d10v5#dbody = 3.398775e-11
m.xm9.msky130_fd_pr__nfet_g5v0d10v5#sbody = 1.537024e-11
m.xm10.msky130_fd_pr__nfet_g5v0d10v5#body = 1.639554e-11
m.xm10.msky130_fd_pr__nfet_g5v0d10v5#dbody = 3.384494e-11
m.xm10.msky130_fd_pr__nfet_g5v0d10v5#sbody = 1.534168e-11
m.xm11.msky130_fd_pr__pfet_g5v0d10v5#body = 2.100000e+00
m.xm11.msky130_fd_pr__pfet_g5v0d10v5#dbody = 2.100000e+00
m.xm11.msky130_fd_pr__pfet_g5v0d10v5#sbody = 2.100000e+00
m.xm12.msky130_fd_pr__pfet_g5v0d10v5#body = 2.100000e+00
m.xm12.msky130_fd_pr__pfet_g5v0d10v5#dbody = 2.100000e+00
m.xm12.msky130_fd_pr__pfet_g5v0d10v5#sbody = 2.100000e+00
m.xm13.msky130_fd_pr__nfet_g5v0d10v5#body = 3.570598e-12
m.xm13.msky130_fd_pr__nfet_g5v0d10v5#dbody = 8.926482e-12
m.xm13.msky130_fd_pr__nfet_g5v0d10v5#sbody = 1.785310e-12
m.xm14.msky130_fd_pr__pfet_g5v0d10v5#body = 2.100000e+00
m.xm14.msky130_fd_pr__pfet_g5v0d10v5#dbody = 2.100000e+00
m.xm14.msky130_fd_pr__pfet_g5v0d10v5#sbody = 2.100000e+00
m.xm15.msky130_fd_pr__nfet_g5v0d10v5#body = 2.775955e-17
m.xm15.msky130_fd_pr__nfet_g5v0d10v5#dbody = 6.939642e-17
m.xm15.msky130_fd_pr__nfet_g5v0d10v5#sbody = 1.388223e-17
m.xm16.msky130_fd_pr__nfet_g5v0d10v5#body = 4.150621e-11
m.xm16.msky130_fd_pr__nfet_g5v0d10v5#dbody = 7.326175e-11
m.xm16.msky130_fd_pr__nfet_g5v0d10v5#sbody = 5.125687e-11
m.xm17.msky130_fd_pr__pfet_g5v0d10v5#body = 2.100000e+00
m.xm17.msky130_fd_pr__pfet_g5v0d10v5#dbody = 2.100000e+00
m.xm17.msky130_fd_pr__pfet_g5v0d10v5#sbody = 2.100000e+00
m.xm18.msky130_fd_pr__nfet_g5v0d10v5#body = 7.925379e-12
m.xm18.msky130_fd_pr__nfet_g5v0d10v5#dbody = 1.981343e-11
m.xm18.msky130_fd_pr__nfet_g5v0d10v5#sbody = 3.962702e-12
m.xm19.msky130_fd_pr__nfet_g5v0d10v5#body = 1.580917e-11
m.xm19.msky130_fd_pr__nfet_g5v0d10v5#dbody = 3.152636e-11
m.xm19.msky130_fd_pr__nfet_g5v0d10v5#sbody = 1.590114e-11
m.xm20.msky130_fd_pr__nfet_g5v0d10v5#body = 1.136358e-11
m.xm20.msky130_fd_pr__nfet_g5v0d10v5#dbody = 2.840893e-11
m.xm20.msky130_fd_pr__nfet_g5v0d10v5#sbody = 5.681803e-12
m.xm22.msky130_fd_pr__nfet_g5v0d10v5#body = 4.000991e-12
m.xm22.msky130_fd_pr__nfet_g5v0d10v5#dbody = 1.000247e-11
m.xm22.msky130_fd_pr__nfet_g5v0d10v5#sbody = 2.000501e-12
m.xm24.msky130_fd_pr__pfet_g5v0d10v5#body = 2.100000e+00
m.xm24.msky130_fd_pr__pfet_g5v0d10v5#dbody = 2.100000e+00
m.xm24.msky130_fd_pr__pfet_g5v0d10v5#sbody = 2.100000e+00
m.xm26.msky130_fd_pr__pfet_g5v0d10v5#body = 2.100000e+00
m.xm26.msky130_fd_pr__pfet_g5v0d10v5#dbody = 2.100000e+00
m.xm26.msky130_fd_pr__pfet_g5v0d10v5#sbody = 2.100000e+00
mir = 9.416340e-01
net1 = 7.215512e-01
net2 = 2.135996e-06
net3 = 7.815368e-01
net4 = 3.195162e-01
net5 = 9.445252e-01
net6 = 9.067947e-01
net7 = 7.815078e-01
net8 = 1.025650e+00
net9 = 1.030219e+00
net10 = 2.855189e-01
net11 = 6.339014e-01
net12 = 6.339014e-01
net13 = 0.000000e+00
out = 6.339014e-01
pos = 1.190877e+00
q.xq2.qsky130_fd_pr__pnp_05v5_w0p68l0p68#collcx = 2.338539e-03
q.xq3.qsky130_fd_pr__pnp_05v5_w0p68l0p68#collcx = 2.939198e-04
q.xq4.qsky130_fd_pr__pnp_05v5_w0p68l0p68#collcx = 2.939198e-04
q.xq8.qsky130_fd_pr__pnp_05v5_w0p68l0p68#collcx = 2.939198e-04
q.xq10.qsky130_fd_pr__pnp_05v5_w0p68l0p68#collcx = 2.939198e-04
q.xq12.qsky130_fd_pr__pnp_05v5_w0p68l0p68#collcx = 2.939198e-04
q.xq14.qsky130_fd_pr__pnp_05v5_w0p68l0p68#collcx = 2.939198e-04
q.xq16.qsky130_fd_pr__pnp_05v5_w0p68l0p68#collcx = 2.939198e-04
q.xq18.qsky130_fd_pr__pnp_05v5_w0p68l0p68#collcx = 2.939198e-04
vb = 9.089574e-01
vdd = 2.100000e+00
vs#branch = -9.96745e-02
vt#branch = 0.000000e+00
xc1.a = 0.000000e+00
xc1.b1 = 0.000000e+00
xc3.a = 6.339014e-01
xc3.b1 = 6.339014e-01
xr1.xsky130_fd_pr__res_xhigh_po_0p69.ra = 7.843988e-01
xr2.xsky130_fd_pr__res_xhigh_po_0p69.ra = 7.844278e-01
xr3.xsky130_fd_pr__res_xhigh_po_0p69.ra = 1.951266e-03
xr4.xsky130_fd_pr__res_xhigh_po_0p69.ra = 7.225280e-01
xr5.xsky130_fd_pr__res_xhigh_po_0p69.ra = 1.951189e-03
xr6.xsky130_fd_pr__res_xhigh_po_0p69.ra = 3.072847e-03
xr7.xsky130_fd_pr__res_xhigh_po_0p69.ra = 6.339014e-01
xr8.xsky130_fd_pr__res_xhigh_po_0p69.ra = 1.195985e+00
xr9.xsky130_fd_pr__res_xhigh_po_0p69.ra = 5.355850e-03
Doing analysis at TEMP = 27.000000 and TNOM = 27.000000


No. of Data Rows : 91
Note: Starting true gmin stepping
Trying gmin =   1.0000E-03 Note: One successful gmin step
Trying gmin =   1.0000E-04 Note: One successful gmin step
Trying gmin =   1.0000E-05 Note: One successful gmin step
Trying gmin =   1.0000E-06 Note: One successful gmin step
Trying gmin =   1.0000E-07 Note: One successful gmin step
Trying gmin =   1.0000E-08 Warning: Further gmin increment
Trying gmin =   5.6234E-08 Note: One successful gmin step
Trying gmin =   2.3714E-08 Warning: Further gmin increment
Trying gmin =   4.5316E-08 Warning: Further gmin increment
Trying gmin =   5.3280E-08 Note: One successful gmin step
Trying gmin =   4.9137E-08 Note: One successful gmin step
Trying gmin =   4.3518E-08 Warning: Further gmin increment
Trying gmin =   4.7668E-08 Note: One successful gmin step
Trying gmin =   4.5546E-08 Warning: Further gmin increment
Trying gmin =   4.7128E-08 Note: One successful gmin step
Trying gmin =   4.6330E-08 Note: One successful gmin step
Trying gmin =   4.5158E-08 Warning: Further gmin increment
Trying gmin =   4.6034E-08 Warning: Further gmin increment
Trying gmin =   4.6256E-08 Warning: Further gmin increment
Trying gmin =   4.6312E-08 Note: One successful gmin step
Trying gmin =   4.6284E-08 Note: One successful gmin step
Trying gmin =   4.6242E-08 Warning: Further gmin increment
Trying gmin =   4.6273E-08 Note: One successful gmin step
Trying gmin =   4.6258E-08 Warning: Further gmin increment
Trying gmin =   4.6269E-08 Note: One successful gmin step
Trying gmin =   4.6264E-08 Warning: Further gmin increment
Trying gmin =   4.6268E-08 Note: One successful gmin step
Trying gmin =   4.6266E-08 Note: One successful gmin step
Trying gmin =   4.6262E-08 Warning: Further gmin increment
Trying gmin =   4.6265E-08 Note: One successful gmin step
Trying gmin =   4.6264E-08 Warning: Last gmin step failed
Warning: True gmin stepping failed
Note: Starting dynamic gmin stepping
Trying gmin =   1.0000E-03 Note: One successful gmin step
Trying gmin =   1.0000E-04 Note: One successful gmin step
Trying gmin =   1.0000E-05 Warning: Further gmin increment
Trying gmin =   5.6234E-05 Note: One successful gmin step
Trying gmin =   2.3714E-05 Note: One successful gmin step
Trying gmin =   6.4938E-06 Note: One successful gmin step
Trying gmin =   9.3057E-07 Warning: Further gmin increment
Trying gmin =   3.9954E-06 Note: One successful gmin step
Trying gmin =   2.4582E-06 Note: One successful gmin step
Trying gmin =   1.1864E-06 Note: One successful gmin step
Trying gmin =   5.7255E-07 Note: One successful gmin step
Trying gmin =   1.9196E-07 Note: One successful gmin step
Trying gmin =   3.7264E-08 Note: One successful gmin step
Trying gmin =   3.7264E-09 Note: One successful gmin step
Trying gmin =   3.7264E-10 Note: One successful gmin step
Trying gmin =   3.7264E-11 Note: One successful gmin step
Trying gmin =   3.7264E-12 Note: One successful gmin step
Trying gmin =   1.0000E-12 Note: One successful gmin step
Note: Dynamic gmin stepping completed
 Reference value :  2.80000e+00Note: Starting true gmin stepping
Trying gmin =   1.0000E-03 Note: One successful gmin step
Trying gmin =   1.0000E-04 Note: One successful gmin step
Trying gmin =   1.0000E-05 Note: One successful gmin step
Trying gmin =   1.0000E-06 Note: One successful gmin step
Trying gmin =   1.0000E-07 Note: One successful gmin step
Trying gmin =   1.0000E-08 Warning: Further gmin increment
Trying gmin =   5.6234E-08 Note: One successful gmin step
Trying gmin =   2.3714E-08 Note: One successful gmin step
Trying gmin =   6.4938E-09 Note: One successful gmin step
Trying gmin =   9.3057E-10 Warning: Further gmin increment
Trying gmin =   3.9954E-09 Note: One successful gmin step
Trying gmin =   1.9282E-09 Warning: Further gmin increment
Trying gmin =   3.3301E-09 Note: One successful gmin step
Trying gmin =   2.5340E-09 Note: One successful gmin step
Trying gmin =   1.6820E-09 Note: One successful gmin step
Trying gmin =   9.0962E-10 Note: One successful gmin step
Trying gmin =   3.6175E-10 Note: One successful gmin step
Trying gmin =   9.0726E-11 Note: One successful gmin step
Trying gmin =   1.1395E-11 Note: One successful gmin step
Trying gmin =   1.1395E-12 Note: One successful gmin step
Trying gmin =   1.0000E-12 Note: One successful gmin step
Note: True gmin stepping completed
Note: Starting true gmin stepping
Trying gmin =   1.0000E-03 Note: One successful gmin step
Trying gmin =   1.0000E-04 Note: One successful gmin step
Trying gmin =   1.0000E-05 Note: One successful gmin step
Trying gmin =   1.0000E-06 Note: One successful gmin step
Trying gmin =   1.0000E-07 Note: One successful gmin step
Trying gmin =   1.0000E-08 Note: One successful gmin step
Trying gmin =   1.0000E-09 Warning: Further gmin increment
Trying gmin =   5.6234E-09 Note: One successful gmin step
Trying gmin =   2.3714E-09 Note: One successful gmin step
Trying gmin =   1.5399E-09 Note: One successful gmin step
Trying gmin =   8.0584E-10 Note: One successful gmin step
Trying gmin =   3.0505E-10 Note: One successful gmin step
Trying gmin =   7.1050E-11 Note: One successful gmin step
Trying gmin =   7.9863E-12 Note: One successful gmin step
Trying gmin =   1.0000E-12 Note: One successful gmin step
Note: True gmin stepping completed
 Reference value :  1.20000e+00pm                  =  1.176365e+02
Doing analysis at TEMP = 27.000000 and TNOM = 27.000000


No. of Data Rows : 91
psrr100             =  -7.108811e+01
psrr100k            =  -2.278033e+01
Doing analysis at TEMP = 27.000000 and TNOM = 27.000000


No. of Data Rows : 86
temp_coeff = 1.319356e+02
Doing analysis at TEMP = 27.000000 and TNOM = 27.000000


No. of Data Rows : 141
vldo_sup_2          =  1.791738e+00
vldo_sup_2_8        =  1.791820e+00
line_reg = 1.025000e-04
Note: No ".plot", ".print", or ".fourier" lines; no simulations run
vin                 =  1.905865e+00
dropout = 1.418650e-01
