Note: Starting true gmin stepping
Trying gmin =   1.0000E-03 Note: One successful gmin step
Trying gmin =   1.0000E-04 Note: One successful gmin step
Trying gmin =   1.0000E-05 Note: One successful gmin step
Trying gmin =   1.0000E-06 Note: One successful gmin step
Trying gmin =   1.0000E-07 Warning: Further gmin increment
Trying gmin =   5.6234E-07 Note: One successful gmin step
Trying gmin =   2.3714E-07 Note: One successful gmin step
Trying gmin =   6.4938E-08 Warning: Further gmin increment
Trying gmin =   1.7154E-07 Note: One successful gmin step
Trying gmin =   1.4590E-07 Note: One successful gmin step
Trying gmin =   1.1444E-07 Note: One successful gmin step
Trying gmin =   7.9504E-08 Warning: Further gmin increment
Trying gmin =   1.0448E-07 Warning: Further gmin increment
Trying gmin =   1.1187E-07 Note: One successful gmin step
Trying gmin =   1.0811E-07 Note: One successful gmin step
Trying gmin =   1.0271E-07 Note: One successful gmin step
Trying gmin =   1.0012E-07 Note: One successful gmin step
Trying gmin =   9.6343E-08 Note: One successful gmin step
Trying gmin =   9.0947E-08 Note: One successful gmin step
Trying gmin =   8.3416E-08 Warning: Further gmin increment
Trying gmin =   8.9003E-08 Note: One successful gmin step
Trying gmin =   8.7100E-08 Note: One successful gmin step
Trying gmin =   8.4322E-08 Note: One successful gmin step
Trying gmin =   8.0320E-08 Note: One successful gmin step
Trying gmin =   7.4670E-08 Note: One successful gmin step
Trying gmin =   6.6932E-08 Note: One successful gmin step
Trying gmin =   5.6802E-08 Note: One successful gmin step
Trying gmin =   4.4407E-08 Note: One successful gmin step
Trying gmin =   3.0697E-08 Note: One successful gmin step
Trying gmin =   1.7642E-08 Note: One successful gmin step
Trying gmin =   7.6866E-09 Note: One successful gmin step
Trying gmin =   2.2106E-09 Note: One successful gmin step
Trying gmin =   3.4095E-10 Note: One successful gmin step
Trying gmin =   3.4095E-11 Note: One successful gmin step
Trying gmin =   3.4095E-12 Note: One successful gmin step
Trying gmin =   1.0000E-12 Note: One successful gmin step
Note: True gmin stepping completed
 Reference value :  0.00000e+00
No compatibility mode selected!


Circuit: * ldo netlist 

Doing analysis at TEMP = 27.000000 and TNOM = 27.000000


No. of Data Rows : 1
bg_out = 1.194079e+00
inn = 1.224892e+00
inp = 1.224868e+00
l1#branch = 5.551115e-17
ldo_out = 1.796248e+00
m.xm1.msky130_fd_pr__nfet_g5v0d10v5#body = 2.019800e-11
m.xm1.msky130_fd_pr__nfet_g5v0d10v5#dbody = 4.446472e-11
m.xm1.msky130_fd_pr__nfet_g5v0d10v5#sbody = 1.612928e-11
m.xm2.msky130_fd_pr__pfet_g5v0d10v5#body = 2.500000e+00
m.xm2.msky130_fd_pr__pfet_g5v0d10v5#dbody = 2.500000e+00
m.xm2.msky130_fd_pr__pfet_g5v0d10v5#sbody = 2.500000e+00
m.xm3.msky130_fd_pr__pfet_g5v0d10v5#body = 2.500000e+00
m.xm3.msky130_fd_pr__pfet_g5v0d10v5#dbody = 2.500000e+00
m.xm3.msky130_fd_pr__pfet_g5v0d10v5#sbody = 2.500000e+00
m.xm4.msky130_fd_pr__pfet_g5v0d10v5#body = 2.500000e+00
m.xm4.msky130_fd_pr__pfet_g5v0d10v5#dbody = 2.500000e+00
m.xm4.msky130_fd_pr__pfet_g5v0d10v5#sbody = 2.500000e+00
m.xm5.msky130_fd_pr__pfet_g5v0d10v5#body = 2.500000e+00
m.xm5.msky130_fd_pr__pfet_g5v0d10v5#dbody = 2.500000e+00
m.xm5.msky130_fd_pr__pfet_g5v0d10v5#sbody = 2.500000e+00
m.xm6.msky130_fd_pr__nfet_g5v0d10v5#body = 1.240870e-11
m.xm6.msky130_fd_pr__nfet_g5v0d10v5#dbody = 3.102174e-11
m.xm6.msky130_fd_pr__nfet_g5v0d10v5#sbody = 6.204355e-12
m.xm7.msky130_fd_pr__pfet_g5v0d10v5#body = 2.500000e+00
m.xm7.msky130_fd_pr__pfet_g5v0d10v5#dbody = 2.500000e+00
m.xm7.msky130_fd_pr__pfet_g5v0d10v5#sbody = 2.500000e+00
m.xm8.msky130_fd_pr__pfet_g5v0d10v5#body = 2.500000e+00
m.xm8.msky130_fd_pr__pfet_g5v0d10v5#dbody = 2.500000e+00
m.xm8.msky130_fd_pr__pfet_g5v0d10v5#sbody = 2.500000e+00
m.xm9.msky130_fd_pr__nfet_g5v0d10v5#body = 2.086878e-11
m.xm9.msky130_fd_pr__nfet_g5v0d10v5#dbody = 4.707488e-11
m.xm9.msky130_fd_pr__nfet_g5v0d10v5#sbody = 1.553126e-11
m.xm10.msky130_fd_pr__nfet_g5v0d10v5#body = 2.058881e-11
m.xm10.msky130_fd_pr__nfet_g5v0d10v5#dbody = 4.637505e-11
m.xm10.msky130_fd_pr__nfet_g5v0d10v5#sbody = 1.539128e-11
m.xm11.msky130_fd_pr__pfet_g5v0d10v5#body = 2.500000e+00
m.xm11.msky130_fd_pr__pfet_g5v0d10v5#dbody = 2.500000e+00
m.xm11.msky130_fd_pr__pfet_g5v0d10v5#sbody = 2.500000e+00
m.xm12.msky130_fd_pr__pfet_g5v0d10v5#body = 2.500000e+00
m.xm12.msky130_fd_pr__pfet_g5v0d10v5#dbody = 2.500000e+00
m.xm12.msky130_fd_pr__pfet_g5v0d10v5#sbody = 2.500000e+00
m.xm13.msky130_fd_pr__nfet_g5v0d10v5#body = 2.547080e-12
m.xm13.msky130_fd_pr__nfet_g5v0d10v5#dbody = 6.367690e-12
m.xm13.msky130_fd_pr__nfet_g5v0d10v5#sbody = 1.273550e-12
m.xm14.msky130_fd_pr__pfet_g5v0d10v5#body = 2.500000e+00
m.xm14.msky130_fd_pr__pfet_g5v0d10v5#dbody = 2.500000e+00
m.xm14.msky130_fd_pr__pfet_g5v0d10v5#sbody = 2.500000e+00
m.xm15.msky130_fd_pr__nfet_g5v0d10v5#body = 1.744198e-15
m.xm15.msky130_fd_pr__nfet_g5v0d10v5#dbody = 4.360424e-15
m.xm15.msky130_fd_pr__nfet_g5v0d10v5#sbody = 8.721699e-16
m.xm16.msky130_fd_pr__nfet_g5v0d10v5#body = 4.656990e-11
m.xm16.msky130_fd_pr__nfet_g5v0d10v5#dbody = 8.579370e-11
m.xm16.msky130_fd_pr__nfet_g5v0d10v5#sbody = 5.391600e-11
m.xm17.msky130_fd_pr__pfet_g5v0d10v5#body = 2.500000e+00
m.xm17.msky130_fd_pr__pfet_g5v0d10v5#dbody = 2.500000e+00
m.xm17.msky130_fd_pr__pfet_g5v0d10v5#sbody = 2.500000e+00
m.xm18.msky130_fd_pr__nfet_g5v0d10v5#body = 2.444157e-11
m.xm18.msky130_fd_pr__nfet_g5v0d10v5#dbody = 5.791763e-11
m.xm18.msky130_fd_pr__nfet_g5v0d10v5#sbody = 1.222080e-11
m.xm19.msky130_fd_pr__nfet_g5v0d10v5#body = 2.024097e-11
m.xm19.msky130_fd_pr__nfet_g5v0d10v5#dbody = 4.457212e-11
m.xm19.msky130_fd_pr__nfet_g5v0d10v5#sbody = 1.615076e-11
m.xm20.msky130_fd_pr__nfet_g5v0d10v5#body = 1.303859e-11
m.xm20.msky130_fd_pr__nfet_g5v0d10v5#dbody = 3.259645e-11
m.xm20.msky130_fd_pr__nfet_g5v0d10v5#sbody = 6.519306e-12
m.xm22.msky130_fd_pr__nfet_g5v0d10v5#body = 3.017852e-12
m.xm22.msky130_fd_pr__nfet_g5v0d10v5#dbody = 7.544625e-12
m.xm22.msky130_fd_pr__nfet_g5v0d10v5#sbody = 1.508931e-12
m.xm24.msky130_fd_pr__pfet_g5v0d10v5#body = 2.500000e+00
m.xm24.msky130_fd_pr__pfet_g5v0d10v5#dbody = 2.500000e+00
m.xm24.msky130_fd_pr__pfet_g5v0d10v5#sbody = 2.500000e+00
m.xm26.msky130_fd_pr__pfet_g5v0d10v5#body = 2.500000e+00
m.xm26.msky13Note: Starting true gmin stepping
Trying gmin =   1.0000E-03 Note: One successful gmin step
Trying gmin =   1.0000E-04 Note: One successful gmin step
Trying gmin =   1.0000E-05 Note: One successful gmin step
Trying gmin =   1.0000E-06 Note: One successful gmin step
Trying gmin =   1.0000E-07 Warning: Further gmin increment
Trying gmin =   5.6234E-07 Note: One successful gmin step
Trying gmin =   2.3714E-07 Note: One successful gmin step
Trying gmin =   6.4938E-08 Warning: Further gmin increment
Trying gmin =   1.7154E-07 Note: One successful gmin step
Trying gmin =   1.4590E-07 Note: One successful gmin step
Trying gmin =   1.1444E-07 Note: One successful gmin step
Trying gmin =   7.9504E-08 Warning: Further gmin increment
Trying gmin =   1.0448E-07 Warning: Further gmin increment
Trying gmin =   1.1187E-07 Note: One successful gmin step
Trying gmin =   1.0811E-07 Note: One successful gmin step
Trying gmin =   1.0271E-07 Note: One successful gmin step
Trying gmin =   1.0012E-07 Note: One successful gmin step
Trying gmin =   9.6343E-08 Note: One successful gmin step
Trying gmin =   9.0947E-08 Note: One successful gmin step
Trying gmin =   8.3416E-08 Warning: Further gmin increment
Trying gmin =   8.9003E-08 Note: One successful gmin step
Trying gmin =   8.7100E-08 Note: One successful gmin step
Trying gmin =   8.4322E-08 Note: One successful gmin step
Trying gmin =   8.0320E-08 Note: One successful gmin step
Trying gmin =   7.4670E-08 Note: One successful gmin step
Trying gmin =   6.6932E-08 Note: One successful gmin step
Trying gmin =   5.6802E-08 Note: One successful gmin step
Trying gmin =   4.4407E-08 Note: One successful gmin step
Trying gmin =   3.0697E-08 Note: One successful gmin step
Trying gmin =   1.7642E-08 Note: One successful gmin step
Trying gmin =   7.6866E-09 Note: One successful gmin step
Trying gmin =   2.2106E-09 Note: One successful gmin step
Trying gmin =   3.4095E-10 Note: One successful gmin step
Trying gmin =   3.4095E-11 Note: One successful gmin step
Trying gmin =   3.4095E-12 Note: One successful gmin step
Trying gmin =   1.0000E-12 Note: One successful gmin step
Note: True gmin stepping completed
 Reference value :  1.00000e+000_fd_pr__pfet_g5v0d10v5#dbody = 2.500000e+00
m.xm26.msky130_fd_pr__pfet_g5v0d10v5#sbody = 2.500000e+00
mir = 1.374279e+00
net1 = 7.262708e-01
net2 = 1.342026e-04
net3 = 7.859723e-01
net4 = 2.408610e-01
net5 = 1.377716e+00
net6 = 9.921287e-01
net7 = 7.859477e-01
net8 = 1.442984e+00
net9 = 1.465378e+00
net10 = 2.036335e-01
net11 = 1.827741e+00
net12 = 1.827741e+00
net13 = 0.000000e+00
out = 1.827741e+00
pos = 1.194279e+00
q.xq2.qsky130_fd_pr__pnp_05v5_w0p68l0p68#collcx = 2.182094e-03
q.xq3.qsky130_fd_pr__pnp_05v5_w0p68l0p68#collcx = 2.748820e-04
q.xq4.qsky130_fd_pr__pnp_05v5_w0p68l0p68#collcx = 2.748820e-04
q.xq8.qsky130_fd_pr__pnp_05v5_w0p68l0p68#collcx = 2.748820e-04
q.xq10.qsky130_fd_pr__pnp_05v5_w0p68l0p68#collcx = 2.748820e-04
q.xq12.qsky130_fd_pr__pnp_05v5_w0p68l0p68#collcx = 2.748820e-04
q.xq14.qsky130_fd_pr__pnp_05v5_w0p68l0p68#collcx = 2.748820e-04
q.xq16.qsky130_fd_pr__pnp_05v5_w0p68l0p68#collcx = 2.748820e-04
q.xq18.qsky130_fd_pr__pnp_05v5_w0p68l0p68#collcx = 2.748820e-04
vb = 1.042954e+00
vdd = 2.500000e+00
vs#branch = -1.76340e-04
vt#branch = 0.000000e+00
xc1.a = 0.000000e+00
xc1.b1 = 0.000000e+00
xc3.a = 1.827741e+00
xc3.b1 = 1.827741e+00
xr1.xsky130_fd_pr__res_xhigh_po_0p69.ra = 7.912735e-01
xr2.xsky130_fd_pr__res_xhigh_po_0p69.ra = 7.912981e-01
xr3.xsky130_fd_pr__res_xhigh_po_0p69.ra = 3.606125e-03
xr4.xsky130_fd_pr__res_xhigh_po_0p69.ra = 7.280602e-01
xr5.xsky130_fd_pr__res_xhigh_po_0p69.ra = 3.606005e-03
xr6.xsky130_fd_pr__res_xhigh_po_0p69.ra = 5.661180e-03
xr7.xsky130_fd_pr__res_xhigh_po_0p69.ra = 1.827741e+00
xr8.xsky130_fd_pr__res_xhigh_po_0p69.ra = 1.203694e+00
xr9.xsky130_fd_pr__res_xhigh_po_0p69.ra = 9.873770e-03
Doing analysis at TEMP = 27.000000 and TNOM = 27.000000


No. of Data Rows : 91
Note: Starting true gmin stepping
Trying gmin =   1.0000E-03 Note: One successful gmin step
Trying gmin =   1.0000E-04 Note: One successful gmin step
Trying gmin =   1.0000E-05 Note: One successful gmin step
Trying gmin =   1.0000E-06 Note: One successful gmin step
Trying gmin =   1.0000E-07 Warning: Further gmin increment
Trying gmin =   5.6234E-07 Note: One successful gmin step
Trying gmin =   2.3714E-07 Note: One successful gmin step
Trying gmin =   6.4938E-08 Warning: Further gmin increment
Trying gmin =   1.7154E-07 Note: One successful gmin step
Trying gmin =   1.4590E-07 Note: One successful gmin step
Trying gmin =   1.1444E-07 Note: One successful gmin step
Trying gmin =   7.9504E-08 Warning: Further gmin increment
Trying gmin =   1.0448E-07 Warning: Further gmin increment
Trying gmin =   1.1187E-07 Note: One successful gmin step
Trying gmin =   1.0811E-07 Note: One successful gmin step
Trying gmin =   1.0271E-07 Note: One successful gmin step
Trying gmin =   1.0012E-07 Note: One successful gmin step
Trying gmin =   9.6343E-08 Note: One successful gmin step
Trying gmin =   9.0947E-08 Note: One successful gmin step
Trying gmin =   8.3416E-08 Warning: Further gmin increment
Trying gmin =   8.9003E-08 Note: One successful gmin step
Trying gmin =   8.7100E-08 Note: One successful gmin step
Trying gmin =   8.4322E-08 Note: One successful gmin step
Trying gmin =   8.0320E-08 Note: One successful gmin step
Trying gmin =   7.4670E-08 Note: One successful gmin step
Trying gmin =   6.6932E-08 Note: One successful gmin step
Trying gmin =   5.6802E-08 Note: One successful gmin step
Trying gmin =   4.4407E-08 Note: One successful gmin step
Trying gmin =   3.0697E-08 Note: One successful gmin step
Trying gmin =   1.7642E-08 Note: One successful gmin step
Trying gmin =   7.6866E-09 Note: One successful gmin step
Trying gmin =   2.2106E-09 Note: One successful gmin step
Trying gmin =   3.4095E-10 Note: One successful gmin step
Trying gmin =   3.4095E-11 Note: One successful gmin step
Trying gmin =   3.4095E-12 Note: One successful gmin step
Trying gmin =   1.0000E-12 Note: One successful gmin step
Note: True gmin stepping completed
 Reference value :  1.00000e+00Note: Starting true gmin stepping
Trying gmin =   1.0000E-03 Note: One successful gmin step
Trying gmin =   1.0000E-04 Note: One successful gmin step
Trying gmin =   1.0000E-05 Note: One successful gmin step
Trying gmin =   1.0000E-06 Note: One successful gmin step
Trying gmin =   1.0000E-07 Warning: Further gmin increment
Trying gmin =   5.6234E-07 Note: One successful gmin step
Trying gmin =   2.3714E-07 Note: One successful gmin step
Trying gmin =   6.4938E-08 Warning: Further gmin increment
Trying gmin =   1.7154E-07 Note: One successful gmin step
Trying gmin =   1.0554E-07 Warning: Further gmin increment
Trying gmin =   1.5193E-07 Note: One successful gmin step
Trying gmin =   1.2663E-07 Warning: Further gmin increment
Trying gmin =   1.4517E-07 Note: One successful gmin step
Trying gmin =   1.3558E-07 Note: One successful gmin step
Trying gmin =   1.2238E-07 Warning: Further gmin increment
Trying gmin =   1.3215E-07 Note: One successful gmin step
Trying gmin =   1.2717E-07 Note: One successful gmin step
Trying gmin =   1.2005E-07 Warning: Further gmin increment
Trying gmin =   1.2535E-07 Note: One successful gmin step
Trying gmin =   1.2445E-07 Note: One successful gmin step
Trying gmin =   1.2312E-07 Note: One successful gmin step
Trying gmin =   1.2114E-07 Note: One successful gmin step
Trying gmin =   1.1823E-07 Note: One successful gmin step
Trying gmin =   1.1399E-07 Note: One successful gmin step
Trying gmin =   1.0792E-07 Note: One successful gmin step
Trying gmin =   9.9423E-08 Note: One successful gmin step
Trying gmin =   8.7909E-08 Note: One successful gmin step
Trying gmin =   7.3089E-08 Note: One successful gmin step
Trying gmin =   5.5409E-08 Warning: Further gmin increment
Trying gmin =   6.8200E-08 Warning: Further gmin increment
Trying gmin =   7.1835E-08 Note: One successful gmin step
Trying gmin =   6.9994E-08 Warning: Further gmin increment
Trying gmin =   7.1370E-08 Note: One successful gmin step
Trying gmin =   7.0678E-08 Warning: Further gmin increment
Trying gmin =   7.1196E-08 Note: One successful gmin step
Trying gmin =   7.0937E-08 Note: One successful gmin step
Trying gmin =   7.0549E-08 Note: One successful gmin step
Trying gmin =   6.9972E-08 Note: One successful gmin step
Trying gmin =   6.9115E-08 Note: One successful gmin step
Trying gmin =   6.7850E-08 Note: One successful gmin step
Trying gmin =   6.5994E-08 Note: One successful gmin step
Trying gmin =   6.3306E-08 Note: One successful gmin step
Trying gmin =   5.9478E-08 Note: One successful gmin step
Trying gmin =   5.4165E-08 Note: One successful gmin step
Trying gmin =   4.7072E-08 Note: One successful gmin step
Trying gmin =   3.8135E-08 Note: One successful gmin step
Trying gmin =   2.7808E-08 Note: One successful gmin step
Trying gmin =   1.7316E-08 Note: One successful gmin step
Trying gmin =   8.5086E-09 Note: One successful gmin step
Trying gmin =   2.9307E-09 Note: One successful gmin step
Trying gmin =   5.9244E-10 Note: One successful gmin step
Trying gmin =   5.9244E-11 Note: One successful gmin step
Trying gmin =   5.9244E-12 Note: One successful gmin step
Trying gmin =   1.0000E-12 Note: One successful gmin step
Note: True gmin stepping completed
 Reference value :  2.80000e+00Note: Starting true gmin stepping
Trying gmin =   1.0000E-03 Note: One successful gmin step
Trying gmin =   1.0000E-04 Note: One successful gmin step
Trying gmin =   1.0000E-05 Note: One successful gmin step
Trying gmin =   1.0000E-06 Note: One successful gmin step
Trying gmin =   1.0000E-07 Note: One successful gmin step
Trying gmin =   1.0000E-08 Warning: Further gmin increment
Trying gmin =   5.6234E-08 Note: One successful gmin step
Trying gmin =   2.3714E-08 Note: One successful gmin step
Trying gmin =   6.4938E-09 Note: One successful gmin step
Trying gmin =   9.3057E-10 Note: One successful gmin step
Trying gmin =   9.3057E-11 Note: One successful gmin step
Trying gmin =   9.3057E-12 Warning: Further gmin increment
Trying gmin =   5.2330E-11 Note: One successful gmin step
Trying gmin =   2.2067E-11 Warning: Further gmin increment
Trying gmin =   4.2170E-11 Note: One successful gmin step
Trying gmin =   3.0505E-11 Note: One successful gmin step
Trying gmin =   1.8769E-11 Warning: Further gmin increment
Trying gmin =   2.7017E-11 Note: One successful gmin step
Trying gmin =   2.2518E-11 Note: One successful gmin step
Trying gmin =   1.8769E-11 Note: One successful gmin step
Trying gmin =   1.4282E-11 Note: One successful gmin step
Trying gmin =   9.4800E-12 Note: One successful gmin step
Trying gmin =   5.1267E-12 Note: One successful gmin step
Trying gmin =   2.0389E-12 Note: One successful gmin step
Trying gmin =   1.0000E-12 Note: One successful gmin step
Note: True gmin stepping completed
 Reference value :  1.18000e+00Note: Starting true gmin stepping
Trying gmin =   1.0000E-03 Note: One successful gmin step
Trying gmin =   1.0000E-04 Note: One successful gmin step
Trying gmin =   1.0000E-05 Note: One successful gmin step
Trying gmin =   1.0000E-06 Note: One successful gmin step
Trying gmin =   1.0000E-07 Note: One successful gmin step
Trying gmin =   1.0000E-08 Note: One successful gmin step
Trying gmin =   1.0000E-09 Note: One successful gmin step
Trying gmin =   1.0000E-10 Note: One successful gmin step
Trying gmin =   1.0000E-11 Warning: Further gmin increment
Trying gmin =   5.6234E-11 Note: One successful gmin step
Trying gmin =   2.3714E-11 Note: One successful gmin step
Trying gmin =   6.4938E-12 Warning: Further gmin increment
Trying gmin =   1.7154E-11 Warning: Further gmin increment
Trying gmin =   2.1870E-11 Note: One successful gmin step
Trying gmin =   1.9369E-11 Note: One successful gmin step
Trying gmin =   1.6144E-11 Warning: Further gmin increment
Trying gmin =   1.8507E-11 Note: One successful gmin step
Trying gmin =   1.7285E-11 Note: One successful gmin step
Trying gmin =   1.6144E-11 Note: One successful gmin step
Trying gmin =   1.4572E-11 Note: One successful gmin step
Trying gmin =   1.2496E-11 Note: One successful gmin step
Trying gmin =   9.9234E-12 Note: One successful gmin step
Trying gmin =   7.0225E-12 Note: One successful gmin step
Trying gmin =   4.1806E-12 Note: One successful gmin step
Trying gmin =   1.9202E-12 Note: One successful gmin step
Trying gmin =   1.0000E-12 Note: One successful gmin step
Note: True gmin stepping completed
 Reference value :  8.80000e-01pm                  =  5.536823e+01
Doing analysis at TEMP = 27.000000 and TNOM = 27.000000


No. of Data Rows : 91
psrr100             =  -8.345174e+01
psrr100k            =  -2.651087e+01
Doing analysis at TEMP = 27.000000 and TNOM = 27.000000


No. of Data Rows : 86
temp_coeff = 3.268202e+02
Doing analysis at TEMP = 27.000000 and TNOM = 27.000000


No. of Data Rows : 141
vldo_sup_2          =  1.796311e+00
vldo_sup_2_8        =  1.796244e+00
line_reg = 8.375000e-05
Note: No ".plot", ".print", or ".fourier" lines; no simulations run
vin                 =  1.764102e+00
dropout = 1.020000e-04
