Note: Starting true gmin stepping
Trying gmin =   1.0000E-03 Note: One successful gmin step
Trying gmin =   1.0000E-04 Note: One successful gmin step
Trying gmin =   1.0000E-05 Note: One successful gmin step
Trying gmin =   1.0000E-06 Note: One successful gmin step
Trying gmin =   1.0000E-07 Warning: Further gmin increment
Trying gmin =   5.6234E-07 Note: One successful gmin step
Trying gmin =   2.3714E-07 Note: One successful gmin step
Trying gmin =   6.4938E-08 Warning: Further gmin increment
Trying gmin =   1.7154E-07 Warning: Further gmin increment
Trying gmin =   2.1870E-07 Note: One successful gmin step
Trying gmin =   2.1002E-07 Note: One successful gmin step
Trying gmin =   1.9765E-07 Note: One successful gmin step
Trying gmin =   1.8045E-07 Note: One successful gmin step
Trying gmin =   1.5741E-07 Note: One successful gmin step
Trying gmin =   1.2824E-07 Note: One successful gmin step
Trying gmin =   9.4308E-08 Warning: Further gmin increment
Trying gmin =   1.1876E-07 Note: One successful gmin step
Trying gmin =   1.0583E-07 Note: One successful gmin step
Trying gmin =   8.9027E-08 Note: One successful gmin step
Trying gmin =   8.1654E-08 Note: One successful gmin step
Trying gmin =   7.1724E-08 Note: One successful gmin step
Trying gmin =   5.9046E-08 Note: One successful gmin step
Trying gmin =   4.4105E-08 Note: One successful gmin step
Trying gmin =   2.8473E-08 Note: One successful gmin step
Trying gmin =   1.4769E-08 Note: One successful gmin step
Trying gmin =   5.5171E-09 Note: One successful gmin step
Trying gmin =   1.2597E-09 Note: One successful gmin step
Trying gmin =   1.3743E-10 Note: One successful gmin step
Trying gmin =   1.3743E-11 Note: One successful gmin step
Trying gmin =   1.3743E-12 Note: One successful gmin step
Trying gmin =   1.0000E-12 Note: One successful gmin step
Note: True gmin stepping completed
 Reference value :  0.00000e+00
No compatibility mode selected!


Circuit: * ldo netlist 

Doing analysis at TEMP = 85.000000 and TNOM = 27.000000


No. of Data Rows : 1
bg_out = 1.203668e+00
inn = 1.149975e+00
inp = 1.149930e+00
l1#branch = 0.000000e+00
ldo_out = 1.811629e+00
m.xm1.msky130_fd_pr__nfet_g5v0d10v5#body = 3.151056e-11
m.xm1.msky130_fd_pr__nfet_g5v0d10v5#dbody = 6.235341e-11
m.xm1.msky130_fd_pr__nfet_g5v0d10v5#sbody = 3.217822e-11
m.xm2.msky130_fd_pr__pfet_g5v0d10v5#body = 2.500000e+00
m.xm2.msky130_fd_pr__pfet_g5v0d10v5#dbody = 2.500000e+00
m.xm2.msky130_fd_pr__pfet_g5v0d10v5#sbody = 2.500000e+00
m.xm3.msky130_fd_pr__pfet_g5v0d10v5#body = 2.500000e+00
m.xm3.msky130_fd_pr__pfet_g5v0d10v5#dbody = 2.500000e+00
m.xm3.msky130_fd_pr__pfet_g5v0d10v5#sbody = 2.500000e+00
m.xm4.msky130_fd_pr__pfet_g5v0d10v5#body = 2.500000e+00
m.xm4.msky130_fd_pr__pfet_g5v0d10v5#dbody = 2.500000e+00
m.xm4.msky130_fd_pr__pfet_g5v0d10v5#sbody = 2.500000e+00
m.xm5.msky130_fd_pr__pfet_g5v0d10v5#body = 2.500000e+00
m.xm5.msky130_fd_pr__pfet_g5v0d10v5#dbody = 2.500000e+00
m.xm5.msky130_fd_pr__pfet_g5v0d10v5#sbody = 2.500000e+00
m.xm6.msky130_fd_pr__nfet_g5v0d10v5#body = 2.056343e-11
m.xm6.msky130_fd_pr__nfet_g5v0d10v5#dbody = 5.140847e-11
m.xm6.msky130_fd_pr__nfet_g5v0d10v5#sbody = 1.028184e-11
m.xm7.msky130_fd_pr__pfet_g5v0d10v5#body = 2.500000e+00
m.xm7.msky130_fd_pr__pfet_g5v0d10v5#dbody = 2.500000e+00
m.xm7.msky130_fd_pr__pfet_g5v0d10v5#sbody = 2.500000e+00
m.xm8.msky130_fd_pr__pfet_g5v0d10v5#body = 2.500000e+00
m.xm8.msky130_fd_pr__pfet_g5v0d10v5#dbody = 2.500000e+00
m.xm8.msky130_fd_pr__pfet_g5v0d10v5#sbody = 2.500000e+00
m.xm9.msky130_fd_pr__nfet_g5v0d10v5#body = 2.970950e-11
m.xm9.msky130_fd_pr__nfet_g5v0d10v5#dbody = 6.066254e-11
m.xm9.msky130_fd_pr__nfet_g5v0d10v5#sbody = 2.846568e-11
m.xm10.msky130_fd_pr__nfet_g5v0d10v5#body = 2.940243e-11
m.xm10.msky130_fd_pr__nfet_g5v0d10v5#dbody = 5.989501e-11
m.xm10.msky130_fd_pr__nfet_g5v0d10v5#sbody = 2.831215e-11
m.xm11.msky130_fd_pr__pfet_g5v0d10v5#body = 2.500000e+00
m.xm11.msky130_fd_pr__pfet_g5v0d10v5#dbody = 2.500000e+00
m.xm11.msky130_fd_pr__pfet_g5v0d10v5#sbody = 2.500000e+00
m.xm12.msky130_fd_pr__pfet_g5v0d10v5#body = 2.500000e+00
m.xm12.msky130_fd_pr__pfet_g5v0d10v5#dbody = 2.500000e+00
m.xm12.msky130_fd_pr__pfet_g5v0d10v5#sbody = 2.500000e+00
m.xm13.msky130_fd_pr__nfet_g5v0d10v5#body = 5.158580e-12
m.xm13.msky130_fd_pr__nfet_g5v0d10v5#dbody = 1.289638e-11
m.xm13.msky130_fd_pr__nfet_g5v0d10v5#sbody = 2.579359e-12
m.xm14.msky130_fd_pr__pfet_g5v0d10v5#body = 2.500000e+00
m.xm14.msky130_fd_pr__pfet_g5v0d10v5#dbody = 2.500000e+00
m.xm14.msky130_fd_pr__pfet_g5v0d10v5#sbody = 2.500000e+00
m.xm15.msky130_fd_pr__nfet_g5v0d10v5#body = 8.030780e-14
m.xm15.msky130_fd_pr__nfet_g5v0d10v5#dbody = 2.007662e-13
m.xm15.msky130_fd_pr__nfet_g5v0d10v5#sbody = 4.015721e-14
m.xm16.msky130_fd_pr__nfet_g5v0d10v5#body = 5.625324e-11
m.xm16.msky130_fd_pr__nfet_g5v0d10v5#dbody = 1.012552e-10
m.xm16.msky130_fd_pr__nfet_g5v0d10v5#sbody = 6.750454e-11
m.xm17.msky130_fd_pr__pfet_g5v0d10v5#body = 2.500000e+00
m.xm17.msky130_fd_pr__pfet_g5v0d10v5#dbody = 2.500000e+00
m.xm17.msky130_fd_pr__pfet_g5v0d10v5#sbody = 2.500000e+00
m.xm18.msky130_fd_pr__nfet_g5v0d10v5#body = 3.267117e-11
m.xm18.msky130_fd_pr__nfet_g5v0d10v5#dbody = 6.933309e-11
m.xm18.msky130_fd_pr__nfet_g5v0d10v5#sbody = 1.633567e-11
m.xm19.msky130_fd_pr__nfet_g5v0d10v5#body = 3.158230e-11
m.xm19.msky130_fd_pr__nfet_g5v0d10v5#dbody = 6.253274e-11
m.xm19.msky130_fd_pr__nfet_g5v0d10v5#sbody = 3.221409e-11
m.xm20.msky130_fd_pr__nfet_g5v0d10v5#body = 1.462704e-11
m.xm20.msky130_fd_pr__nfet_g5v0d10v5#dbody = 3.656752e-11
m.xm20.msky130_fd_pr__nfet_g5v0d10v5#sbody = 7.313600e-12
m.xm22.msky130_fd_pr__nfet_g5v0d10v5#body = 1.150401e-11
m.xm22.msky130_fd_pr__nfet_g5v0d10v5#dbody = 2.875991e-11
m.xm22.msky130_fd_pr__nfet_g5v0d10v5#sbody = 5.752116e-12
m.xm24.msky130_fd_pr__pfet_g5v0d10v5#body = 2.500000e+00
m.xm24.msky130_fd_pr__pfet_g5v0d10v5#dbody = 2.500000e+00
m.xm24.msky130_fd_pr__pfet_g5v0d10v5#sbody = 2.500000e+00
m.xm26.msky130_fd_pr__pfet_g5v0d10v5#body = 2.500000e+00
m.xm26.msky13Note: Starting true gmin stepping
Trying gmin =   1.0000E-03 Note: One successful gmin step
Trying gmin =   1.0000E-04 Note: One successful gmin step
Trying gmin =   1.0000E-05 Note: One successful gmin step
Trying gmin =   1.0000E-06 Note: One successful gmin step
Trying gmin =   1.0000E-07 Warning: Further gmin increment
Trying gmin =   5.6234E-07 Note: One successful gmin step
Trying gmin =   2.3714E-07 Note: One successful gmin step
Trying gmin =   6.4938E-08 Warning: Further gmin increment
Trying gmin =   1.7154E-07 Warning: Further gmin increment
Trying gmin =   2.1870E-07 Note: One successful gmin step
Trying gmin =   2.1002E-07 Note: One successful gmin step
Trying gmin =   1.9765E-07 Note: One successful gmin step
Trying gmin =   1.8045E-07 Note: One successful gmin step
Trying gmin =   1.5741E-07 Note: One successful gmin step
Trying gmin =   1.2824E-07 Note: One successful gmin step
Trying gmin =   9.4308E-08 Warning: Further gmin increment
Trying gmin =   1.1876E-07 Note: One successful gmin step
Trying gmin =   1.0583E-07 Note: One successful gmin step
Trying gmin =   8.9027E-08 Note: One successful gmin step
Trying gmin =   8.1654E-08 Note: One successful gmin step
Trying gmin =   7.1724E-08 Note: One successful gmin step
Trying gmin =   5.9046E-08 Note: One successful gmin step
Trying gmin =   4.4105E-08 Note: One successful gmin step
Trying gmin =   2.8473E-08 Note: One successful gmin step
Trying gmin =   1.4769E-08 Note: One successful gmin step
Trying gmin =   5.5171E-09 Note: One successful gmin step
Trying gmin =   1.2597E-09 Note: One successful gmin step
Trying gmin =   1.3743E-10 Note: One successful gmin step
Trying gmin =   1.3743E-11 Note: One successful gmin step
Trying gmin =   1.3743E-12 Note: One successful gmin step
Trying gmin =   1.0000E-12 Note: One successful gmin step
Note: True gmin stepping completed
 Reference value :  1.00000e+000_fd_pr__pfet_g5v0d10v5#dbody = 2.500000e+00
m.xm26.msky130_fd_pr__pfet_g5v0d10v5#sbody = 2.500000e+00
mir = 1.438783e+00
net1 = 6.313360e-01
net2 = 1.550096e-04
net3 = 7.051909e-01
net4 = 2.321692e-01
net5 = 1.444521e+00
net6 = 9.562840e-01
net7 = 7.051457e-01
net8 = 1.514431e+00
net9 = 1.538991e+00
net10 = 2.512698e-01
net11 = 1.958402e+00
net12 = 1.958402e+00
net13 = 0.000000e+00
out = 1.958402e+00
pos = 1.203928e+00
q.xq2.qsky130_fd_pr__pnp_05v5_w0p68l0p68#collcx = 3.101939e-03
q.xq3.qsky130_fd_pr__pnp_05v5_w0p68l0p68#collcx = 3.916864e-04
q.xq4.qsky130_fd_pr__pnp_05v5_w0p68l0p68#collcx = 3.916864e-04
q.xq8.qsky130_fd_pr__pnp_05v5_w0p68l0p68#collcx = 3.916864e-04
q.xq10.qsky130_fd_pr__pnp_05v5_w0p68l0p68#collcx = 3.916864e-04
q.xq12.qsky130_fd_pr__pnp_05v5_w0p68l0p68#collcx = 3.916864e-04
q.xq14.qsky130_fd_pr__pnp_05v5_w0p68l0p68#collcx = 3.916864e-04
q.xq16.qsky130_fd_pr__pnp_05v5_w0p68l0p68#collcx = 3.916864e-04
q.xq18.qsky130_fd_pr__pnp_05v5_w0p68l0p68#collcx = 3.916864e-04
vb = 1.008662e+00
vdd = 2.500000e+00
vs#branch = -1.94823e-04
vt#branch = 0.000000e+00
xc1.a = 0.000000e+00
xc1.b1 = 0.000000e+00
xc3.a = 1.958402e+00
xc3.b1 = 1.958402e+00
xr1.xsky130_fd_pr__res_xhigh_po_0p69.ra = 7.083213e-01
xr2.xsky130_fd_pr__res_xhigh_po_0p69.ra = 7.083666e-01
xr3.xsky130_fd_pr__res_xhigh_po_0p69.ra = 1.893358e-03
xr4.xsky130_fd_pr__res_xhigh_po_0p69.ra = 6.326359e-01
xr5.xsky130_fd_pr__res_xhigh_po_0p69.ra = 1.893229e-03
xr6.xsky130_fd_pr__res_xhigh_po_0p69.ra = 3.364618e-03
xr7.xsky130_fd_pr__res_xhigh_po_0p69.ra = 1.958402e+00
xr8.xsky130_fd_pr__res_xhigh_po_0p69.ra = 1.209519e+00
xr9.xsky130_fd_pr__res_xhigh_po_0p69.ra = 5.864559e-03
Doing analysis at TEMP = 85.000000 and TNOM = 27.000000


No. of Data Rows : 91
Note: Starting true gmin stepping
Trying gmin =   1.0000E-03 Note: One successful gmin step
Trying gmin =   1.0000E-04 Note: One successful gmin step
Trying gmin =   1.0000E-05 Note: One successful gmin step
Trying gmin =   1.0000E-06 Note: One successful gmin step
Trying gmin =   1.0000E-07 Warning: Further gmin increment
Trying gmin =   5.6234E-07 Note: One successful gmin step
Trying gmin =   2.3714E-07 Note: One successful gmin step
Trying gmin =   6.4938E-08 Warning: Further gmin increment
Trying gmin =   1.7154E-07 Warning: Further gmin increment
Trying gmin =   2.1870E-07 Note: One successful gmin step
Trying gmin =   2.1002E-07 Note: One successful gmin step
Trying gmin =   1.9765E-07 Note: One successful gmin step
Trying gmin =   1.8045E-07 Note: One successful gmin step
Trying gmin =   1.5741E-07 Note: One successful gmin step
Trying gmin =   1.2824E-07 Note: One successful gmin step
Trying gmin =   9.4308E-08 Warning: Further gmin increment
Trying gmin =   1.1876E-07 Note: One successful gmin step
Trying gmin =   1.0583E-07 Note: One successful gmin step
Trying gmin =   8.9027E-08 Note: One successful gmin step
Trying gmin =   8.1654E-08 Note: One successful gmin step
Trying gmin =   7.1724E-08 Note: One successful gmin step
Trying gmin =   5.9046E-08 Note: One successful gmin step
Trying gmin =   4.4105E-08 Note: One successful gmin step
Trying gmin =   2.8473E-08 Note: One successful gmin step
Trying gmin =   1.4769E-08 Note: One successful gmin step
Trying gmin =   5.5171E-09 Note: One successful gmin step
Trying gmin =   1.2597E-09 Note: One successful gmin step
Trying gmin =   1.3743E-10 Note: One successful gmin step
Trying gmin =   1.3743E-11 Note: One successful gmin step
Trying gmin =   1.3743E-12 Note: One successful gmin step
Trying gmin =   1.0000E-12 Note: One successful gmin step
Note: True gmin stepping completed
 Reference value :  1.00000e+00Note: Starting true gmin stepping
Trying gmin =   1.0000E-03 Note: One successful gmin step
Trying gmin =   1.0000E-04 Note: One successful gmin step
Trying gmin =   1.0000E-05 Note: One successful gmin step
Trying gmin =   1.0000E-06 Note: One successful gmin step
Trying gmin =   1.0000E-07 Warning: Further gmin increment
Trying gmin =   5.6234E-07 Note: One successful gmin step
Trying gmin =   2.3714E-07 Note: One successful gmin step
Trying gmin =   6.4938E-08 Warning: Further gmin increment
Trying gmin =   1.7154E-07 Warning: Further gmin increment
Trying gmin =   2.1870E-07 Note: One successful gmin step
Trying gmin =   2.1002E-07 Note: One successful gmin step
Trying gmin =   1.9765E-07 Note: One successful gmin step
Trying gmin =   1.8045E-07 Note: One successful gmin step
Trying gmin =   1.5741E-07 Note: One successful gmin step
Trying gmin =   1.2824E-07 Note: One successful gmin step
Trying gmin =   9.4308E-08 Warning: Further gmin increment
Trying gmin =   1.1876E-07 Note: One successful gmin step
Trying gmin =   1.0583E-07 Note: One successful gmin step
Trying gmin =   8.9027E-08 Note: One successful gmin step
Trying gmin =   8.1654E-08 Note: One successful gmin step
Trying gmin =   7.1724E-08 Note: One successful gmin step
Trying gmin =   5.9046E-08 Note: One successful gmin step
Trying gmin =   4.4105E-08 Note: One successful gmin step
Trying gmin =   2.8473E-08 Note: One successful gmin step
Trying gmin =   1.4769E-08 Note: One successful gmin step
Trying gmin =   5.5171E-09 Note: One successful gmin step
Trying gmin =   1.2597E-09 Note: One successful gmin step
Trying gmin =   1.3743E-10 Note: One successful gmin step
Trying gmin =   1.3743E-11 Note: One successful gmin step
Trying gmin =   1.3743E-12 Note: One successful gmin step
Trying gmin =   1.0000E-12 Note: One successful gmin step
Note: True gmin stepping completed
 Reference value :  8.50000e+01Note: Starting true gmin stepping
Trying gmin =   1.0000E-03 Note: One successful gmin step
Trying gmin =   1.0000E-04 Note: One successful gmin step
Trying gmin =   1.0000E-05 Note: One successful gmin step
Trying gmin =   1.0000E-06 Note: One successful gmin step
Trying gmin =   1.0000E-07 Warning: Further gmin increment
Trying gmin =   5.6234E-07 Note: One successful gmin step
Trying gmin =   2.3714E-07 Note: One successful gmin step
Trying gmin =   6.4938E-08 Warning: Further gmin increment
Trying gmin =   1.7154E-07 Note: One successful gmin step
Trying gmin =   1.0554E-07 Warning: Further gmin increment
Trying gmin =   1.5193E-07 Warning: Further gmin increment
Trying gmin =   1.6641E-07 Note: One successful gmin step
Trying gmin =   1.5901E-07 Warning: Further gmin increment
Trying gmin =   1.6453E-07 Note: One successful gmin step
Trying gmin =   1.6175E-07 Warning: Further gmin increment
Trying gmin =   1.6383E-07 Note: One successful gmin step
Trying gmin =   1.6278E-07 Warning: Further gmin increment
Trying gmin =   1.6357E-07 Note: One successful gmin step
Trying gmin =   1.6318E-07 Warning: Further gmin increment
Trying gmin =   1.6347E-07 Note: One successful gmin step
Trying gmin =   1.6332E-07 Warning: Further gmin increment
Trying gmin =   1.6343E-07 Note: One successful gmin step
Trying gmin =   1.6338E-07 Note: One successful gmin step
Trying gmin =   1.6330E-07 Warning: Further gmin increment
Trying gmin =   1.6336E-07 Warning: Further gmin increment
Trying gmin =   1.6337E-07 Note: One successful gmin step
Trying gmin =   1.6336E-07 Note: One successful gmin step
Trying gmin =   1.6335E-07 Warning: Further gmin increment
Trying gmin =   1.6336E-07 Warning: Last gmin step failed
Warning: True gmin stepping failed
Note: Starting dynamic gmin stepping
Trying gmin =   1.0000E-03 Note: One successful gmin step
Trying gmin =   1.0000E-04 Note: One successful gmin step
Trying gmin =   1.0000E-05 Warning: Further gmin increment
Trying gmin =   5.6234E-05 Note: One successful gmin step
Trying gmin =   2.3714E-05 Note: One successful gmin step
Trying gmin =   6.4938E-06 Warning: Further gmin increment
Trying gmin =   1.7154E-05 Note: One successful gmin step
Trying gmin =   1.0554E-05 Warning: Further gmin increment
Trying gmin =   1.5193E-05 Note: One successful gmin step
Trying gmin =   1.2663E-05 Note: One successful gmin step
Trying gmin =   9.6358E-06 Warning: Further gmin increment
Trying gmin =   1.1827E-05 Note: One successful gmin step
Trying gmin =   1.0675E-05 Note: One successful gmin step
Trying gmin =   9.1546E-06 Note: One successful gmin step
Trying gmin =   7.2699E-06 Note: One successful gmin step
Trying gmin =   5.1447E-06 Note: One successful gmin step
Trying gmin =   3.6407E-06 Note: One successful gmin step
Trying gmin =   2.1674E-06 Warning: Further gmin increment
Trying gmin =   3.1980E-06 Note: One successful gmin step
Trying gmin =   2.6327E-06 Warning: Further gmin increment
Trying gmin =   3.0462E-06 Note: One successful gmin step
Trying gmin =   2.8319E-06 Note: One successful gmin step
Trying gmin =   2.7305E-06 Note: One successful gmin step
Trying gmin =   2.5851E-06 Note: One successful gmin step
Trying gmin =   2.3815E-06 Note: One successful gmin step
Trying gmin =   2.1057E-06 Note: One successful gmin step
Trying gmin =   1.7507E-06 Note: One successful gmin step
Trying gmin =   1.3272E-06 Note: One successful gmin step
Trying gmin =   8.7607E-07 Note: One successful gmin step
Trying gmin =   4.6981E-07 Note: One successful gmin step
Trying gmin =   1.8451E-07 Note: One successful gmin step
Trying gmin =   4.5409E-08 Note: One successful gmin step
Trying gmin =   5.5441E-09 Note: One successful gmin step
Trying gmin =   5.5441E-10 Note: One successful gmin step
Trying gmin =   5.5441E-11 Note: One successful gmin step
Trying gmin =   5.5441E-12 Note: One successful gmin step
Trying gmin =   1.0000E-12 Note: One successful gmin step
Note: Dynamic gmin stepping completed
 Reference value :  2.80000e+00Note: Starting true gmin stepping
Trying gmin =   1.0000E-03 Note: One successful gmin step
Trying gmin =   1.0000E-04 Note: One successful gmin step
Trying gmin =   1.0000E-05 Note: One successful gmin step
Trying gmin =   1.0000E-06 Note: One successful gmin step
Trying gmin =   1.0000E-07 Note: One successful gmin step
Trying gmin =   1.0000E-08 Warning: Further gmin increment
Trying gmin =   5.6234E-08 Note: One successful gmin step
Trying gmin =   2.3714E-08 Note: One successful gmin step
Trying gmin =   6.4938E-09 Note: One successful gmin step
Trying gmin =   9.3057E-10 Note: One successful gmin step
Trying gmin =   9.3057E-11 Warning: Further gmin increment
Trying gmin =   5.2330E-10 Note: One successful gmin step
Trying gmin =   2.2067E-10 Warning: Further gmin increment
Trying gmin =   4.2170E-10 Note: One successful gmin step
Trying gmin =   3.0505E-10 Note: One successful gmin step
Trying gmin =   1.8769E-10 Note: One successful gmin step
Trying gmin =   9.0580E-11 Note: One successful gmin step
Trying gmin =   3.0368E-11 Note: One successful gmin step
Trying gmin =   5.8953E-12 Note: One successful gmin step
Trying gmin =   1.0000E-12 Note: One successful gmin step
Note: True gmin stepping completed
 Reference value :  1.10000e+00Note: Starting true gmin stepping
Trying gmin =   1.0000E-03 Note: One successful gmin step
Trying gmin =   1.0000E-04 Note: One successful gmin step
Trying gmin =   1.0000E-05 Note: One successful gmin step
Trying gmin =   1.0000E-06 Note: One successful gmin step
Trying gmin =   1.0000E-07 Note: One successful gmin step
Trying gmin =   1.0000E-08 Warning: Further gmin increment
Trying gmin =   5.6234E-08 Note: One successful gmin step
Trying gmin =   2.3714E-08 Note: One successful gmin step
Trying gmin =   6.4938E-09 Note: One successful gmin step
Trying gmin =   9.3057E-10 Note: One successful gmin step
Trying gmin =   9.3057E-11 Warning: Further gmin increment
Trying gmin =   5.2330E-10 Note: One successful gmin step
Trying gmin =   2.2067E-10 Note: One successful gmin step
Trying gmin =   6.0430E-11 Note: One successful gmin step
Trying gmin =   8.6596E-12 Note: One successful gmin step
Trying gmin =   1.0000E-12 Note: One successful gmin step
Note: True gmin stepping completed
 Reference value :  4.00000e-02pm                  =  6.178265e+01
Doing analysis at TEMP = 85.000000 and TNOM = 27.000000


No. of Data Rows : 91
psrr100             =  -5.340737e+01
psrr100k            =  -2.457513e+01
Doing analysis at TEMP = 85.000000 and TNOM = 27.000000


No. of Data Rows : 86
temp_coeff = 1.740625e+02
Doing analysis at TEMP = 85.000000 and TNOM = 27.000000


No. of Data Rows : 141
vldo_sup_2          =  1.809907e+00
vldo_sup_2_8        =  1.812160e+00
line_reg = 2.816250e-03
Note: No ".plot", ".print", or ".fourier" lines; no simulations run
vin                 =  1.764117e+00
dropout = 1.170000e-04
