 Reference value :  0.00000e+00
No compatibility mode selected!


Circuit: * ldo netlist 

Doing analysis at TEMP = 27.000000 and TNOM = 27.000000


No. of Data Rows : 1
bg_out = 1.092765e+00
inn = 1.134643e+00
inp = 1.134628e+00
l1#branch = 0.000000e+00
ldo_out = 1.796187e+00
m.xm1.msky130_fd_pr__nfet_g5v0d10v5#body = 2.006422e-11
m.xm1.msky130_fd_pr__nfet_g5v0d10v5#dbody = 4.369154e-11
m.xm1.msky130_fd_pr__nfet_g5v0d10v5#sbody = 1.650111e-11
m.xm2.msky130_fd_pr__pfet_g5v0d10v5#body = 2.500000e+00
m.xm2.msky130_fd_pr__pfet_g5v0d10v5#dbody = 2.500000e+00
m.xm2.msky130_fd_pr__pfet_g5v0d10v5#sbody = 2.500000e+00
m.xm3.msky130_fd_pr__pfet_g5v0d10v5#body = 2.500000e+00
m.xm3.msky130_fd_pr__pfet_g5v0d10v5#dbody = 2.500000e+00
m.xm3.msky130_fd_pr__pfet_g5v0d10v5#sbody = 2.500000e+00
m.xm4.msky130_fd_pr__pfet_g5v0d10v5#body = 2.500000e+00
m.xm4.msky130_fd_pr__pfet_g5v0d10v5#dbody = 2.500000e+00
m.xm4.msky130_fd_pr__pfet_g5v0d10v5#sbody = 2.500000e+00
m.xm5.msky130_fd_pr__pfet_g5v0d10v5#body = 2.500000e+00
m.xm5.msky130_fd_pr__pfet_g5v0d10v5#dbody = 2.500000e+00
m.xm5.msky130_fd_pr__pfet_g5v0d10v5#sbody = 2.500000e+00
m.xm6.msky130_fd_pr__nfet_g5v0d10v5#body = 1.132251e-11
m.xm6.msky130_fd_pr__nfet_g5v0d10v5#dbody = 2.830626e-11
m.xm6.msky130_fd_pr__nfet_g5v0d10v5#sbody = 5.661259e-12
m.xm7.msky130_fd_pr__pfet_g5v0d10v5#body = 2.500000e+00
m.xm7.msky130_fd_pr__pfet_g5v0d10v5#dbody = 2.500000e+00
m.xm7.msky130_fd_pr__pfet_g5v0d10v5#sbody = 2.500000e+00
m.xm8.msky130_fd_pr__pfet_g5v0d10v5#body = 2.500000e+00
m.xm8.msky130_fd_pr__pfet_g5v0d10v5#dbody = 2.500000e+00
m.xm8.msky130_fd_pr__pfet_g5v0d10v5#sbody = 2.500000e+00
m.xm9.msky130_fd_pr__nfet_g5v0d10v5#body = 2.064887e-11
m.xm9.msky130_fd_pr__nfet_g5v0d10v5#dbody = 4.621148e-11
m.xm9.msky130_fd_pr__nfet_g5v0d10v5#sbody = 1.573506e-11
m.xm10.msky130_fd_pr__nfet_g5v0d10v5#body = 2.038016e-11
m.xm10.msky130_fd_pr__nfet_g5v0d10v5#dbody = 4.553973e-11
m.xm10.msky130_fd_pr__nfet_g5v0d10v5#sbody = 1.560070e-11
m.xm11.msky130_fd_pr__pfet_g5v0d10v5#body = 2.500000e+00
m.xm11.msky130_fd_pr__pfet_g5v0d10v5#dbody = 2.500000e+00
m.xm11.msky130_fd_pr__pfet_g5v0d10v5#sbody = 2.500000e+00
m.xm12.msky130_fd_pr__pfet_g5v0d10v5#body = 2.500000e+00
m.xm12.msky130_fd_pr__pfet_g5v0d10v5#dbody = 2.500000e+00
m.xm12.msky130_fd_pr__pfet_g5v0d10v5#sbody = 2.500000e+00
m.xm13.msky130_fd_pr__nfet_g5v0d10v5#body = 2.703954e-12
m.xm13.msky130_fd_pr__nfet_g5v0d10v5#dbody = 6.759875e-12
m.xm13.msky130_fd_pr__nfet_g5v0d10v5#sbody = 1.351988e-12
m.xm14.msky130_fd_pr__pfet_g5v0d10v5#body = 2.500000e+00
m.xm14.msky130_fd_pr__pfet_g5v0d10v5#dbody = 2.500000e+00
m.xm14.msky130_fd_pr__pfet_g5v0d10v5#sbody = 2.500000e+00
m.xm15.msky130_fd_pr__nfet_g5v0d10v5#body = 1.371344e-15
m.xm15.msky130_fd_pr__nfet_g5v0d10v5#dbody = 3.428266e-15
m.xm15.msky130_fd_pr__nfet_g5v0d10v5#sbody = 6.857668e-16
m.xm16.msky130_fd_pr__nfet_g5v0d10v5#body = 4.544169e-11
m.xm16.msky130_fd_pr__nfet_g5v0d10v5#dbody = 8.522950e-11
m.xm16.msky130_fd_pr__nfet_g5v0d10v5#sbody = 5.109558e-11
m.xm17.msky130_fd_pr__pfet_g5v0d10v5#body = 2.500000e+00
m.xm17.msky130_fd_pr__pfet_g5v0d10v5#dbody = 2.500000e+00
m.xm17.msky130_fd_pr__pfet_g5v0d10v5#sbody = 2.500000e+00
m.xm18.msky130_fd_pr__nfet_g5v0d10v5#body = 2.381922e-11
m.xm18.msky130_fd_pr__nfet_g5v0d10v5#dbody = 5.677333e-11
m.xm18.msky130_fd_pr__nfet_g5v0d10v5#sbody = 1.190962e-11
m.xm19.msky130_fd_pr__nfet_g5v0d10v5#body = 2.009185e-11
m.xm19.msky130_fd_pr__nfet_g5v0d10v5#dbody = 4.376063e-11
m.xm19.msky130_fd_pr__nfet_g5v0d10v5#sbody = 1.651492e-11
m.xm20.msky130_fd_pr__nfet_g5v0d10v5#body = 1.134369e-11
m.xm20.msky130_fd_pr__nfet_g5v0d10v5#dbody = 2.835921e-11
m.xm20.msky130_fd_pr__nfet_g5v0d10v5#sbody = 5.671858e-12
m.xm22.msky130_fd_pr__nfet_g5v0d10v5#body = 3.237212e-12
m.xm22.msky130_fd_pr__nfet_g5v0d10v5#dbody = 8.093024e-12
m.xm22.msky130_fd_pr__nfet_g5v0d10v5#sbody = 1.618611e-12
m.xm24.msky130_fd_pr__pfet_g5v0d10v5#body = 2.500000e+00
m.xm24.msky130_fd_pr__pfet_g5v0d10v5#dbody = 2.500000e+00
m.xm24.msky130_fd_pr__pfet_g5v0d10v5#sbody = 2.500000e+00
m.xm26.msky130_fd_pr__pfet_g5v0d10v5#body = 2.500000e+00
m.xm26.msky130_fd_pr__pfet_g5v0d10v5#dbody = 2.500000e+00
m.xm26.msky130_fd_pr__pfet_g5v0d10v5#sbody = 2.500000e+00
mir = 1.346031e+00
net1 = 7.203633e-01
net2 = 1.055274e-04
net3 = 7.801840e-01
net4 = 2.584139e-01
net5 = 1.348242e+00
net6 = 9.052374e-01
net7 = 7.801681e-01
net8 = 1.413749e+00
net9 = 1.435244e+00
net10 = 2.161875e-01
net11 = 1.794420e+00
net12 = 1.794420e+00
net13 = 0.000000e+00
out = 1.794420e+00
pos = 1.092956e+00
q.xq2.qsky130_fd_pr__pnp_05v5_w0p68l0p68#collcx = 2.240484e-03
q.xq3.qsky130_fd_pr__pnp_05v5_w0p68l0p68#collcx = 2.815052e-04
q.xq4.qsky130_fd_pr__pnp_05v5_w0p68l0p68#collcx = 2.815052e-04
q.xq8.qsky130_fd_pr__pnp_05v5_w0p68l0p68#collcx = 2.815052e-04
q.xq10.qsky130_fd_pr__pnp_05v5_w0p68l0p68#collcx = 2.815052e-04
q.xq12.qsky130_fd_pr__pnp_05v5_w0p68l0p68#collcx = 2.815052e-04
q.xq14.qsky130_fd_pr__pnp_05v5_w0p68l0p68#collcx = 2.815052e-04
q.xq16.qsky130_fd_pr__pnp_05v5_w0p68l0p68#collcx = 2.815052e-04
q.xq18.qsky130_fd_pr__pnp_05v5_w0p68l0p68#collcx = 2.815052e-04
vb = 9.073663e-01
vdd = 2.500000e+00
vs#branch = -1.78534e-04
vt#branch = 0.000000e+00
xc1.a = 0.000000e+00
xc1.b1 = 0.000000e+00
xc3.a = 1.794420e+00
xc3.b1 = 1.794420e+00
xr1.xsky130_fd_pr__res_xhigh_po_0p69.ra = 7.856160e-01
xr2.xsky130_fd_pr__res_xhigh_po_0p69.ra = 7.856318e-01
xr3.xsky130_fd_pr__res_xhigh_po_0p69.ra = 3.755870e-03
xr4.xsky130_fd_pr__res_xhigh_po_0p69.ra = 7.221565e-01
xr5.xsky130_fd_pr__res_xhigh_po_0p69.ra = 3.755788e-03
xr6.xsky130_fd_pr__res_xhigh_po_0p69.ra = 5.780094e-03
xr7.xsky130_fd_pr__res_xhigh_po_0p69.ra = 1.794420e+00
xr8.xsky130_fd_pr__res_xhigh_po_0p69.ra = 1.101740e+00
xr9.xsky130_fd_pr__res_xhigh_po_0p69.ra = 9.066529e-03
Doing analysis at TEMP = 27.000000 and TNOM = 27.000000


No. of Data Rows : 91
Note: Starting true gmin stepping
Trying gmin =   1.0000E-03 Note: One successful gmin step
Trying gmin =   1.0000E-04 Note: One successful gmin step
Trying gmin =   1.0000E-05 Note: One successful gmin step
Trying gmin =   1.0000E-06 Note: One successful gmin step
Trying gmin =   1.0000E-07 Note: One successful gmin step
Trying gmin =   1.0000E-08 Warning: Further gmin increment
Trying gmin =   5.6234E-08 Warning: Further gmin increment
Trying gmin =   8.6596E-08 Note: One successful gmin step
Trying gmin =   6.9783E-08 Warning: Further gmin increment
Trying gmin =   8.2047E-08 Note: One successful gmin step
Trying gmin =   7.5667E-08 Warning: Further gmin increment
Trying gmin =   8.0403E-08 Note: One successful gmin step
Trying gmin =   7.7999E-08 Warning: Further gmin increment
Trying gmin =   7.9795E-08 Note: One successful gmin step
Trying gmin =   7.8892E-08 Note: One successful gmin step
Trying gmin =   7.7556E-08 Warning: Further gmin increment
Trying gmin =   7.8556E-08 Note: One successful gmin step
Trying gmin =   7.8055E-08 Warning: Further gmin increment
Trying gmin =   7.8430E-08 Note: One successful gmin step
Trying gmin =   7.8242E-08 Warning: Further gmin increment
Trying gmin =   7.8383E-08 Note: One successful gmin step
Trying gmin =   7.8313E-08 Note: One successful gmin step
Trying gmin =   7.8207E-08 Warning: Further gmin increment
Trying gmin =   7.8286E-08 Warning: Further gmin increment
Trying gmin =   7.8306E-08 Note: One successful gmin step
Trying gmin =   7.8296E-08 Warning: Further gmin increment
Trying gmin =   7.8304E-08 Note: One successful gmin step
Trying gmin =   7.8300E-08 Warning: Last gmin step failed
Warning: True gmin stepping failed
Note: Starting dynamic gmin stepping
Trying gmin =   1.0000E-03 Note: One successful gmin step
Trying gmin =   1.0000E-04 Note: One successful gmin step
Trying gmin =   1.0000E-05 Note: One successful gmin step
Trying gmin =   1.0000E-06 Warning: Further gmin increment
Trying gmin =   5.6234E-06 Note: One successful gmin step
Trying gmin =   4.2170E-06 Note: One successful gmin step
Trying gmin =   2.7384E-06 Note: One successful gmin step
Trying gmin =   1.4330E-06 Warning: Further gmin increment
Trying gmin =   2.3291E-06 Note: One successful gmin step
Trying gmin =   1.8269E-06 Note: One successful gmin step
Trying gmin =   1.2692E-06 Warning: Further gmin increment
Trying gmin =   1.6679E-06 Note: One successful gmin step
Trying gmin =   1.4549E-06 Warning: Further gmin increment
Trying gmin =   1.6119E-06 Warning: Further gmin increment
Trying gmin =   1.6537E-06 Warning: Further gmin increment
Trying gmin =   1.6643E-06 Note: One successful gmin step
Trying gmin =   1.6590E-06 Note: One successful gmin step
Trying gmin =   1.6511E-06 Note: One successful gmin step
Trying gmin =   1.6432E-06 Note: One successful gmin step
Trying gmin =   1.6314E-06 Note: One successful gmin step
Trying gmin =   1.6138E-06 Note: One successful gmin step
Trying gmin =   1.5879E-06 Note: One successful gmin step
Trying gmin =   1.5497E-06 Note: One successful gmin step
Trying gmin =   1.4942E-06 Note: One successful gmin step
Trying gmin =   1.4147E-06 Note: One successful gmin step
Trying gmin =   1.3033E-06 Note: One successful gmin step
Trying gmin =   1.1523E-06 Note: One successful gmin step
Trying gmin =   9.5806E-07 Note: One successful gmin step
Trying gmin =   7.2631E-07 Note: One successful gmin step
Trying gmin =   4.7942E-07 Note: One successful gmin step
Trying gmin =   2.5710E-07 Note: One successful gmin step
Trying gmin =   1.0097E-07 Note: One successful gmin step
Trying gmin =   2.4850E-08 Note: One successful gmin step
Trying gmin =   3.0340E-09 Note: One successful gmin step
Trying gmin =   3.0340E-10 Note: One successful gmin step
Trying gmin =   3.0340E-11 Note: One successful gmin step
Trying gmin =   3.0340E-12 Note: One successful gmin step
Trying gmin =   1.0000E-12 Note: One successful gmin step
Note: Dynamic gmin stepping completed
 Reference value :  2.80000e+00Note: Starting true gmin stepping
Trying gmin =   1.0000E-03 Note: One successful gmin step
Trying gmin =   1.0000E-04 Note: One successful gmin step
Trying gmin =   1.0000E-05 Note: One successful gmin step
Trying gmin =   1.0000E-06 Note: One successful gmin step
Trying gmin =   1.0000E-07 Note: One successful gmin step
Trying gmin =   1.0000E-08 Warning: Further gmin increment
Trying gmin =   5.6234E-08 Note: One successful gmin step
Trying gmin =   2.3714E-08 Note: One successful gmin step
Trying gmin =   1.0000E-08 Note: One successful gmin step
Trying gmin =   2.7384E-09 Warning: Further gmin increment
Trying gmin =   7.2339E-09 Note: One successful gmin step
Trying gmin =   4.4508E-09 Note: One successful gmin step
Trying gmin =   2.1480E-09 Note: One successful gmin step
Trying gmin =   7.2015E-10 Note: One successful gmin step
Trying gmin =   1.3980E-10 Note: One successful gmin step
Trying gmin =   1.3980E-11 Note: One successful gmin step
Trying gmin =   1.3980E-12 Note: One successful gmin step
Trying gmin =   1.0000E-12 Note: One successful gmin step
Note: True gmin stepping completed
Note: Starting true gmin stepping
Trying gmin =   1.0000E-03 Note: One successful gmin step
Trying gmin =   1.0000E-04 Note: One successful gmin step
Trying gmin =   1.0000E-05 Note: One successful gmin step
Trying gmin =   1.0000E-06 Note: One successful gmin step
Trying gmin =   1.0000E-07 Note: One successful gmin step
Trying gmin =   1.0000E-08 Warning: Further gmin increment
Trying gmin =   5.6234E-08 Note: One successful gmin step
Trying gmin =   2.3714E-08 Note: One successful gmin step
Trying gmin =   1.0000E-08 Note: One successful gmin step
Trying gmin =   2.7384E-09 Warning: Further gmin increment
Trying gmin =   7.2339E-09 Note: One successful gmin step
Trying gmin =   4.4508E-09 Warning: Further gmin increment
Trying gmin =   6.4068E-09 Note: One successful gmin step
Trying gmin =   5.3400E-09 Note: One successful gmin step
Trying gmin =   4.0634E-09 Warning: Further gmin increment
Trying gmin =   4.9874E-09 Note: One successful gmin step
Trying gmin =   4.5017E-09 Note: One successful gmin step
Trying gmin =   3.8605E-09 Note: One successful gmin step
Trying gmin =   3.0657E-09 Note: One successful gmin step
Trying gmin =   2.1695E-09 Note: One successful gmin step
Trying gmin =   1.2915E-09 Note: One successful gmin step
Trying gmin =   5.9323E-10 Note: One successful gmin step
Trying gmin =   1.8467E-10 Note: One successful gmin step
Trying gmin =   3.2075E-11 Note: One successful gmin step
Trying gmin =   3.2075E-12 Note: One successful gmin step
Trying gmin =   1.0000E-12 Note: One successful gmin step
Note: True gmin stepping completed
 Reference value :  1.24000e+00pm                  =  6.557509e+01
Doing analysis at TEMP = 27.000000 and TNOM = 27.000000


No. of Data Rows : 91
psrr100             =  -7.192843e+01
psrr100k            =  -2.720225e+01
Doing analysis at TEMP = 27.000000 and TNOM = 27.000000


No. of Data Rows : 86
temp_coeff = 3.353976e+01
Doing analysis at TEMP = 27.000000 and TNOM = 27.000000


No. of Data Rows : 141
vldo_sup_2          =  1.796378e+00
vldo_sup_2_8        =  1.796131e+00
line_reg = 3.087500e-04
Note: No ".plot", ".print", or ".fourier" lines; no simulations run
vin                 =  1.764103e+00
dropout = 1.030000e-04
