 Reference value :  0.00000e+00
No compatibility mode selected!


Circuit: * ldo netlist 

Doing analysis at TEMP = 27.000000 and TNOM = 27.000000


No. of Data Rows : 1
bg_out = 1.197101e+00
inn = 1.230983e+00
inp = 1.230916e+00
l1#branch = 0.000000e+00
ldo_out = 1.800828e+00
m.xm1.msky130_fd_pr__nfet_g5v0d10v5#body = 1.333544e-11
m.xm1.msky130_fd_pr__nfet_g5v0d10v5#dbody = 2.691039e-11
m.xm1.msky130_fd_pr__nfet_g5v0d10v5#sbody = 1.309594e-11
m.xm2.msky130_fd_pr__pfet_g5v0d10v5#body = 2.100000e+00
m.xm2.msky130_fd_pr__pfet_g5v0d10v5#dbody = 2.100000e+00
m.xm2.msky130_fd_pr__pfet_g5v0d10v5#sbody = 2.100000e+00
m.xm3.msky130_fd_pr__pfet_g5v0d10v5#body = 2.100000e+00
m.xm3.msky130_fd_pr__pfet_g5v0d10v5#dbody = 2.100000e+00
m.xm3.msky130_fd_pr__pfet_g5v0d10v5#sbody = 2.100000e+00
m.xm4.msky130_fd_pr__pfet_g5v0d10v5#body = 2.100000e+00
m.xm4.msky130_fd_pr__pfet_g5v0d10v5#dbody = 2.100000e+00
m.xm4.msky130_fd_pr__pfet_g5v0d10v5#sbody = 2.100000e+00
m.xm5.msky130_fd_pr__pfet_g5v0d10v5#body = 2.100000e+00
m.xm5.msky130_fd_pr__pfet_g5v0d10v5#dbody = 2.100000e+00
m.xm5.msky130_fd_pr__pfet_g5v0d10v5#sbody = 2.100000e+00
m.xm6.msky130_fd_pr__nfet_g5v0d10v5#body = 1.223339e-11
m.xm6.msky130_fd_pr__nfet_g5v0d10v5#dbody = 3.058346e-11
m.xm6.msky130_fd_pr__nfet_g5v0d10v5#sbody = 6.116698e-12
m.xm7.msky130_fd_pr__pfet_g5v0d10v5#body = 2.100000e+00
m.xm7.msky130_fd_pr__pfet_g5v0d10v5#dbody = 2.100000e+00
m.xm7.msky130_fd_pr__pfet_g5v0d10v5#sbody = 2.100000e+00
m.xm8.msky130_fd_pr__pfet_g5v0d10v5#body = 2.100000e+00
m.xm8.msky130_fd_pr__pfet_g5v0d10v5#dbody = 2.100000e+00
m.xm8.msky130_fd_pr__pfet_g5v0d10v5#sbody = 2.100000e+00
m.xm9.msky130_fd_pr__nfet_g5v0d10v5#body = 1.405154e-11
m.xm9.msky130_fd_pr__nfet_g5v0d10v5#dbody = 2.968765e-11
m.xm9.msky130_fd_pr__nfet_g5v0d10v5#sbody = 1.246696e-11
m.xm10.msky130_fd_pr__nfet_g5v0d10v5#body = 1.381187e-11
m.xm10.msky130_fd_pr__nfet_g5v0d10v5#dbody = 2.908848e-11
m.xm10.msky130_fd_pr__nfet_g5v0d10v5#sbody = 1.234712e-11
m.xm11.msky130_fd_pr__pfet_g5v0d10v5#body = 2.100000e+00
m.xm11.msky130_fd_pr__pfet_g5v0d10v5#dbody = 2.100000e+00
m.xm11.msky130_fd_pr__pfet_g5v0d10v5#sbody = 2.100000e+00
m.xm12.msky130_fd_pr__pfet_g5v0d10v5#body = 2.100000e+00
m.xm12.msky130_fd_pr__pfet_g5v0d10v5#dbody = 2.100000e+00
m.xm12.msky130_fd_pr__pfet_g5v0d10v5#sbody = 2.100000e+00
m.xm13.msky130_fd_pr__nfet_g5v0d10v5#body = 2.719238e-12
m.xm13.msky130_fd_pr__nfet_g5v0d10v5#dbody = 6.798083e-12
m.xm13.msky130_fd_pr__nfet_g5v0d10v5#sbody = 1.359629e-12
m.xm14.msky130_fd_pr__pfet_g5v0d10v5#body = 2.100000e+00
m.xm14.msky130_fd_pr__pfet_g5v0d10v5#dbody = 2.100000e+00
m.xm14.msky130_fd_pr__pfet_g5v0d10v5#sbody = 2.100000e+00
m.xm15.msky130_fd_pr__nfet_g5v0d10v5#body = 6.422545e-18
m.xm15.msky130_fd_pr__nfet_g5v0d10v5#dbody = 1.605606e-17
m.xm15.msky130_fd_pr__nfet_g5v0d10v5#sbody = 3.211576e-18
m.xm16.msky130_fd_pr__nfet_g5v0d10v5#body = 4.164602e-11
m.xm16.msky130_fd_pr__nfet_g5v0d10v5#dbody = 7.333174e-11
m.xm16.msky130_fd_pr__nfet_g5v0d10v5#sbody = 5.160631e-11
m.xm17.msky130_fd_pr__pfet_g5v0d10v5#body = 2.100000e+00
m.xm17.msky130_fd_pr__pfet_g5v0d10v5#dbody = 2.100000e+00
m.xm17.msky130_fd_pr__pfet_g5v0d10v5#sbody = 2.100000e+00
m.xm18.msky130_fd_pr__nfet_g5v0d10v5#body = 1.527897e-11
m.xm18.msky130_fd_pr__nfet_g5v0d10v5#dbody = 3.819740e-11
m.xm18.msky130_fd_pr__nfet_g5v0d10v5#sbody = 7.639496e-12
m.xm19.msky130_fd_pr__nfet_g5v0d10v5#body = 1.341525e-11
m.xm19.msky130_fd_pr__nfet_g5v0d10v5#dbody = 2.710990e-11
m.xm19.msky130_fd_pr__nfet_g5v0d10v5#sbody = 1.313584e-11
m.xm20.msky130_fd_pr__nfet_g5v0d10v5#body = 1.280634e-11
m.xm20.msky130_fd_pr__nfet_g5v0d10v5#dbody = 3.201583e-11
m.xm20.msky130_fd_pr__nfet_g5v0d10v5#sbody = 6.403182e-12
m.xm22.msky130_fd_pr__nfet_g5v0d10v5#body = 3.216821e-12
m.xm22.msky130_fd_pr__nfet_g5v0d10v5#dbody = 8.042049e-12
m.xm22.msky130_fd_pr__nfet_g5v0d10v5#sbody = 1.608415e-12
m.xm24.msky130_fd_pr__pfet_g5v0d10v5#body = 2.100000e+00
m.xm24.msky130_fd_pr__pfet_g5v0d10v5#dbody = 2.100000e+00
m.xm24.msky130_fd_pr__pfet_g5v0d10v5#sbody = 2.100000e+00
m.xm26.msky130_fd_pr__pfet_g5v0d10v5#body = 2.100000e+00
m.xm26.msky130_fd_pr__pfet_g5v0d10v5#dbody = 2.100000e+00
m.xm26.msky130_fd_pr__pfet_g5v0d10v5#sbody = 2.100000e+00
mir = 8.093576e-01
net1 = 7.317123e-01
net2 = 4.941325e-07
net3 = 7.910974e-01
net4 = 2.567793e-01
net5 = 8.157419e-01
net6 = 9.781044e-01
net7 = 7.910287e-01
net8 = 8.870611e-01
net9 = 9.062346e-01
net10 = 2.174068e-01
net11 = 1.222185e+00
net12 = 1.222185e+00
net13 = 0.000000e+00
out = 1.222185e+00
pos = 1.197324e+00
q.xq2.qsky130_fd_pr__pnp_05v5_w0p68l0p68#collcx = 2.031937e-03
q.xq3.qsky130_fd_pr__pnp_05v5_w0p68l0p68#collcx = 2.576528e-04
q.xq4.qsky130_fd_pr__pnp_05v5_w0p68l0p68#collcx = 2.576528e-04
q.xq8.qsky130_fd_pr__pnp_05v5_w0p68l0p68#collcx = 2.576528e-04
q.xq10.qsky130_fd_pr__pnp_05v5_w0p68l0p68#collcx = 2.576528e-04
q.xq12.qsky130_fd_pr__pnp_05v5_w0p68l0p68#collcx = 2.576528e-04
q.xq14.qsky130_fd_pr__pnp_05v5_w0p68l0p68#collcx = 2.576528e-04
q.xq16.qsky130_fd_pr__pnp_05v5_w0p68l0p68#collcx = 2.576528e-04
q.xq18.qsky130_fd_pr__pnp_05v5_w0p68l0p68#collcx = 2.576528e-04
vb = 1.024375e+00
vdd = 2.100000e+00
vs#branch = -1.75745e-04
vt#branch = 0.000000e+00
xc1.a = 0.000000e+00
xc1.b1 = 0.000000e+00
xc3.a = 1.222185e+00
xc3.b1 = 1.222185e+00
xr1.xsky130_fd_pr__res_xhigh_po_0p69.ra = 7.963666e-01
xr2.xsky130_fd_pr__res_xhigh_po_0p69.ra = 7.964354e-01
xr3.xsky130_fd_pr__res_xhigh_po_0p69.ra = 3.631193e-03
xr4.xsky130_fd_pr__res_xhigh_po_0p69.ra = 7.334908e-01
xr5.xsky130_fd_pr__res_xhigh_po_0p69.ra = 3.630856e-03
xr6.xsky130_fd_pr__res_xhigh_po_0p69.ra = 5.676792e-03
xr7.xsky130_fd_pr__res_xhigh_po_0p69.ra = 1.222185e+00
xr8.xsky130_fd_pr__res_xhigh_po_0p69.ra = 1.206764e+00
xr9.xsky130_fd_pr__res_xhigh_po_0p69.ra = 9.901182e-03
Doing analysis at TEMP = 27.000000 and TNOM = 27.000000


No. of Data Rows : 91
Note: Starting true gmin stepping
Trying gmin =   1.0000E-03 Note: One successful gmin step
Trying gmin =   1.0000E-04 Note: One successful gmin step
Trying gmin =   1.0000E-05 Note: One successful gmin step
Trying gmin =   1.0000E-06 Note: One successful gmin step
Trying gmin =   1.0000E-07 Note: One successful gmin step
Trying gmin =   1.0000E-08 Warning: Further gmin increment
Trying gmin =   5.6234E-08 Warning: Further gmin increment
Trying gmin =   8.6596E-08 Note: One successful gmin step
Trying gmin =   6.9783E-08 Warning: Further gmin increment
Trying gmin =   8.2047E-08 Note: One successful gmin step
Trying gmin =   7.5667E-08 Note: One successful gmin step
Trying gmin =   6.7015E-08 Warning: Further gmin increment
Trying gmin =   7.3404E-08 Note: One successful gmin step
Trying gmin =   7.0137E-08 Warning: Further gmin increment
Trying gmin =   7.2574E-08 Note: One successful gmin step
Trying gmin =   7.1345E-08 Note: One successful gmin step
Trying gmin =   6.9541E-08 Warning: Further gmin increment
Trying gmin =   7.0890E-08 Note: One successful gmin step
Trying gmin =   7.0212E-08 Note: One successful gmin step
Trying gmin =   6.9208E-08 Warning: Further gmin increment
Trying gmin =   6.9959E-08 Warning: Further gmin increment
Trying gmin =   7.0149E-08 Warning: Further gmin increment
Trying gmin =   7.0196E-08 Note: One successful gmin step
Trying gmin =   7.0172E-08 Warning: Further gmin increment
Trying gmin =   7.0190E-08 Note: One successful gmin step
Trying gmin =   7.0181E-08 Warning: Further gmin increment
Trying gmin =   7.0188E-08 Warning: Last gmin step failed
Warning: True gmin stepping failed
Note: Starting dynamic gmin stepping
Trying gmin =   1.0000E-03 Note: One successful gmin step
Trying gmin =   1.0000E-04 Note: One successful gmin step
Trying gmin =   1.0000E-05 Warning: Further gmin increment
Trying gmin =   5.6234E-05 Note: One successful gmin step
Trying gmin =   2.3714E-05 Note: One successful gmin step
Trying gmin =   6.4938E-06 Warning: Further gmin increment
Trying gmin =   1.7154E-05 Note: One successful gmin step
Trying gmin =   1.0554E-05 Warning: Further gmin increment
Trying gmin =   1.5193E-05 Note: One successful gmin step
Trying gmin =   1.2663E-05 Note: One successful gmin step
Trying gmin =   9.6358E-06 Warning: Further gmin increment
Trying gmin =   1.1827E-05 Note: One successful gmin step
Trying gmin =   1.0675E-05 Note: One successful gmin step
Trying gmin =   9.1546E-06 Note: One successful gmin step
Trying gmin =   7.2699E-06 Note: One successful gmin step
Trying gmin =   5.1447E-06 Warning: Further gmin increment
Trying gmin =   6.6678E-06 Note: One successful gmin step
Trying gmin =   5.8569E-06 Note: One successful gmin step
Trying gmin =   4.8217E-06 Note: One successful gmin step
Trying gmin =   3.9694E-06 Note: One successful gmin step
Trying gmin =   2.9650E-06 Note: One successful gmin step
Trying gmin =   1.9141E-06 Note: One successful gmin step
Trying gmin =   9.9284E-07 Note: One successful gmin step
Trying gmin =   3.7089E-07 Note: One successful gmin step
Trying gmin =   8.4684E-08 Warning: Further gmin increment
Trying gmin =   2.5638E-07 Warning: Further gmin increment
Trying gmin =   3.3819E-07 Note: One successful gmin step
Trying gmin =   2.9446E-07 Warning: Further gmin increment
Trying gmin =   3.2668E-07 Warning: Further gmin increment
Trying gmin =   3.3527E-07 Note: One successful gmin step
Trying gmin =   3.3095E-07 Note: One successful gmin step
Trying gmin =   3.2457E-07 Warning: Further gmin increment
Trying gmin =   3.2934E-07 Note: One successful gmin step
Trying gmin =   3.2695E-07 Warning: Further gmin increment
Trying gmin =   3.2874E-07 Note: One successful gmin step
Trying gmin =   3.2784E-07 Warning: Further gmin increment
Trying gmin =   3.2852E-07 Note: One successful gmin step
Trying gmin =   3.2818E-07 Note: One successful gmin step
Trying gmin =   3.2767E-07 Warning: Further gmin increment
Trying gmin =   3.2805E-07 Note: One successful gmin step
Trying gmin =   3.2786E-07 Warning: Further gmin increment
Trying gmin =   3.2801E-07 Note: One successful gmin step
Trying gmin =   3.2794E-07 Warning: Further gmin increment
Trying gmin =   3.2799E-07 Note: One successful gmin step
Trying gmin =   3.2796E-07 Warning: Further gmin increment
Trying gmin =   3.2798E-07 Note: One successful gmin step
Trying gmin =   3.2797E-07 Note: One successful gmin step
Trying gmin =   3.2796E-07 Warning: Last gmin step failed
Warning: Dynamic gmin stepping failed
Note: Starting source stepping
Supplies reduced to   0.0000% Note: One successful source step
Supplies reduced to   0.1000% Note: One successful source step
Supplies reduced to   0.2000% Note: One successful source step
Supplies reduced to   0.3500% Note: One successful source step
Supplies reduced to   0.5750% Note: One successful source step
Supplies reduced to   0.9125% Note: One successful source step
Supplies reduced to   1.4188% Note: One successful source step
Supplies reduced to   2.1781% Note: One successful source step
Supplies reduced to   3.3172% Note: One successful source step
Supplies reduced to   5.0258% Note: One successful source step
Supplies reduced to   7.5887% Note: One successful source step
Supplies reduced to  11.4330% Note: One successful source step
Supplies reduced to  17.1995% Note: One successful source step
Supplies reduced to  25.8493% Note: One successful source step
Supplies reduced to  38.8239% Supplies reduced to  25.8493% Note: One successful source step
Supplies reduced to  26.8493% Note: One successful source step
Supplies reduced to  28.3493% Note: One successful source step
Supplies reduced to  30.5993% Note: One successful source step
Supplies reduced to  33.9743% Note: One successful source step
Supplies reduced to  39.0368% Note: One successful source step
Supplies reduced to  46.6305% Note: One successful source step
Supplies reduced to  58.0211% Note: One successful source step
Supplies reduced to  69.4118% Note: One successful source step
Supplies reduced to  86.4977% Error: -5.37556e+162, 2 out of range for ^
Supplies reduced to  69.4118% Note: One successful source step
Supplies reduced to  70.4118% Supplies reduced to  69.4118% Note: One successful source step
Supplies reduced to  69.5618% Supplies reduced to  69.4118% Note: One successful source step
Supplies reduced to  69.4343% Note: One successful source step
Supplies reduced to  69.4680% Note: One successful source step
Supplies reduced to  69.5186% Note: One successful source step
Supplies reduced to  69.5946% Supplies reduced to  69.5186% Note: One successful source step
Supplies reduced to  69.5300% Supplies reduced to  69.5186% Note: One successful source step
Supplies reduced to  69.5204% Note: One successful source step
Supplies reduced to  69.5229% Supplies reduced to  69.5204% Note: One successful source step
Supplies reduced to  69.5207% Note: One successful source step
Supplies reduced to  69.5213% Supplies reduced to  69.5207% Note: One successful source step
Supplies reduced to  69.5208% Note: One successful source step
Supplies reduced to  69.5210% Note: One successful source step
Supplies reduced to  69.5211% Supplies reduced to  69.5210% Note: One successful source step
Supplies reduced to  69.5210% Note: One successful source step
Supplies reduced to  69.5210% Warning: source stepping failed
doAnalyses: Too many iterations without convergence

dc simulation(s) aborted
Error(parse.c--checkvalid): vldo_sup_2_8: zero length vector.
Error: RHS "abs((vldo_sup_2_8-vldo_sup_2)/0.8)" invalid
Error(parse.c--checkvalid): line_reg: zero length vector.
Error(parse.c--checkvalid): vin: zero length vector.
Error: RHS "vin-1.764" invalid
Error(parse.c--checkvalid): dropout: zero length vector.
Error: no such vector dropout
Note: No ".plot", ".print", or ".fourier" lines; no simulations run
pm                  =  5.509108e+01
Doing analysis at TEMP = 27.000000 and TNOM = 27.000000


No. of Data Rows : 91
psrr100             =  -6.775370e+01
psrr100k            =  -2.637878e+01
Doing analysis at TEMP = 27.000000 and TNOM = 27.000000


No. of Data Rows : 86
temp_coeff = 1.338943e+02
Doing analysis at TEMP = 27.000000 and TNOM = 27.000000


Error: measure  vldo_sup_2  (AT) : out of interval
 meas dc vldo_sup_2 find ldo_out at=2 failed!


Error: measure  vldo_sup_2_8  (AT) : out of interval
 meas dc vldo_sup_2_8 find ldo_out at=2.8 failed!


Error: measure  vin  (WHEN) : out of interval
 meas dc vin when v(ldo_out)=1.764 failed!

