 Reference value :  0.00000e+00
No compatibility mode selected!


Circuit: * ldo netlist 

Doing analysis at TEMP = 27.000000 and TNOM = 27.000000


No. of Data Rows : 1
bg_out = 1.195754e+00
inn = 1.227476e+00
inp = 1.227461e+00
l1#branch = 0.000000e+00
ldo_out = 1.799272e+00
m.xm1.msky130_fd_pr__nfet_g5v0d10v5#body = 1.962103e-11
m.xm1.msky130_fd_pr__nfet_g5v0d10v5#dbody = 4.178731e-11
m.xm1.msky130_fd_pr__nfet_g5v0d10v5#sbody = 1.707578e-11
m.xm2.msky130_fd_pr__pfet_g5v0d10v5#body = 2.500000e+00
m.xm2.msky130_fd_pr__pfet_g5v0d10v5#dbody = 2.500000e+00
m.xm2.msky130_fd_pr__pfet_g5v0d10v5#sbody = 2.500000e+00
m.xm3.msky130_fd_pr__pfet_g5v0d10v5#body = 2.500000e+00
m.xm3.msky130_fd_pr__pfet_g5v0d10v5#dbody = 2.500000e+00
m.xm3.msky130_fd_pr__pfet_g5v0d10v5#sbody = 2.500000e+00
m.xm4.msky130_fd_pr__pfet_g5v0d10v5#body = 2.500000e+00
m.xm4.msky130_fd_pr__pfet_g5v0d10v5#dbody = 2.500000e+00
m.xm4.msky130_fd_pr__pfet_g5v0d10v5#sbody = 2.500000e+00
m.xm5.msky130_fd_pr__pfet_g5v0d10v5#body = 2.500000e+00
m.xm5.msky130_fd_pr__pfet_g5v0d10v5#dbody = 2.500000e+00
m.xm5.msky130_fd_pr__pfet_g5v0d10v5#sbody = 2.500000e+00
m.xm6.msky130_fd_pr__nfet_g5v0d10v5#body = 1.180988e-11
m.xm6.msky130_fd_pr__nfet_g5v0d10v5#dbody = 2.952470e-11
m.xm6.msky130_fd_pr__nfet_g5v0d10v5#sbody = 5.904947e-12
m.xm7.msky130_fd_pr__pfet_g5v0d10v5#body = 2.500000e+00
m.xm7.msky130_fd_pr__pfet_g5v0d10v5#dbody = 2.500000e+00
m.xm7.msky130_fd_pr__pfet_g5v0d10v5#sbody = 2.500000e+00
m.xm8.msky130_fd_pr__pfet_g5v0d10v5#body = 2.500000e+00
m.xm8.msky130_fd_pr__pfet_g5v0d10v5#dbody = 2.500000e+00
m.xm8.msky130_fd_pr__pfet_g5v0d10v5#sbody = 2.500000e+00
m.xm9.msky130_fd_pr__nfet_g5v0d10v5#body = 2.026759e-11
m.xm9.msky130_fd_pr__nfet_g5v0d10v5#dbody = 4.433564e-11
m.xm9.msky130_fd_pr__nfet_g5v0d10v5#sbody = 1.646713e-11
m.xm10.msky130_fd_pr__nfet_g5v0d10v5#body = 2.013525e-11
m.xm10.msky130_fd_pr__nfet_g5v0d10v5#dbody = 4.400479e-11
m.xm10.msky130_fd_pr__nfet_g5v0d10v5#sbody = 1.640096e-11
m.xm11.msky130_fd_pr__pfet_g5v0d10v5#body = 2.500000e+00
m.xm11.msky130_fd_pr__pfet_g5v0d10v5#dbody = 2.500000e+00
m.xm11.msky130_fd_pr__pfet_g5v0d10v5#sbody = 2.500000e+00
m.xm12.msky130_fd_pr__pfet_g5v0d10v5#body = 2.500000e+00
m.xm12.msky130_fd_pr__pfet_g5v0d10v5#dbody = 2.500000e+00
m.xm12.msky130_fd_pr__pfet_g5v0d10v5#sbody = 2.500000e+00
m.xm13.msky130_fd_pr__nfet_g5v0d10v5#body = 3.165308e-12
m.xm13.msky130_fd_pr__nfet_g5v0d10v5#dbody = 7.913258e-12
m.xm13.msky130_fd_pr__nfet_g5v0d10v5#sbody = 1.582665e-12
m.xm14.msky130_fd_pr__pfet_g5v0d10v5#body = 2.500000e+00
m.xm14.msky130_fd_pr__pfet_g5v0d10v5#dbody = 2.500000e+00
m.xm14.msky130_fd_pr__pfet_g5v0d10v5#sbody = 2.500000e+00
m.xm15.msky130_fd_pr__nfet_g5v0d10v5#body = 6.276515e-16
m.xm15.msky130_fd_pr__nfet_g5v0d10v5#dbody = 1.569087e-15
m.xm15.msky130_fd_pr__nfet_g5v0d10v5#sbody = 3.138677e-16
m.xm16.msky130_fd_pr__nfet_g5v0d10v5#body = 4.660215e-11
m.xm16.msky130_fd_pr__nfet_g5v0d10v5#dbody = 8.580976e-11
m.xm16.msky130_fd_pr__nfet_g5v0d10v5#sbody = 5.399668e-11
m.xm17.msky130_fd_pr__pfet_g5v0d10v5#body = 2.500000e+00
m.xm17.msky130_fd_pr__pfet_g5v0d10v5#dbody = 2.500000e+00
m.xm17.msky130_fd_pr__pfet_g5v0d10v5#sbody = 2.500000e+00
m.xm18.msky130_fd_pr__nfet_g5v0d10v5#body = 1.283565e-11
m.xm18.msky130_fd_pr__nfet_g5v0d10v5#dbody = 3.208912e-11
m.xm18.msky130_fd_pr__nfet_g5v0d10v5#sbody = 6.417839e-12
m.xm19.msky130_fd_pr__nfet_g5v0d10v5#body = 1.964803e-11
m.xm19.msky130_fd_pr__nfet_g5v0d10v5#dbody = 4.185482e-11
m.xm19.msky130_fd_pr__nfet_g5v0d10v5#sbody = 1.708928e-11
m.xm20.msky130_fd_pr__nfet_g5v0d10v5#body = 1.208412e-11
m.xm20.msky130_fd_pr__nfet_g5v0d10v5#dbody = 3.021029e-11
m.xm20.msky130_fd_pr__nfet_g5v0d10v5#sbody = 6.042075e-12
m.xm22.msky130_fd_pr__nfet_g5v0d10v5#body = 3.635346e-12
m.xm22.msky130_fd_pr__nfet_g5v0d10v5#dbody = 9.088358e-12
m.xm22.msky130_fd_pr__nfet_g5v0d10v5#sbody = 1.817678e-12
m.xm24.msky130_fd_pr__pfet_g5v0d10v5#body = 2.500000e+00
m.xm24.msky130_fd_pr__pfet_g5v0d10v5#dbody = 2.500000e+00
m.xm24.msky130_fd_pr__pfet_g5v0d10v5#sbody = 2.500000e+00
m.xm26.msky130_fd_pr__pfet_g5v0d10v5#body = 2.500000e+00
m.xm26.msky130_fd_pr__pfet_g5v0d10v5#dbody = 2.500000e+00
m.xm26.msky130_fd_pr__pfet_g5v0d10v5#sbody = 2.500000e+00
mir = 1.278724e+00
net1 = 7.274645e-01
net2 = 4.829417e-05
net3 = 7.873318e-01
net4 = 2.902629e-01
net5 = 1.280884e+00
net6 = 9.442258e-01
net7 = 7.873156e-01
net8 = 1.357248e+00
net9 = 1.367835e+00
net10 = 2.530941e-01
net11 = 1.026722e+00
net12 = 1.026722e+00
net13 = 0.000000e+00
out = 1.026722e+00
pos = 1.195850e+00
q.xq2.qsky130_fd_pr__pnp_05v5_w0p68l0p68#collcx = 2.278282e-03
q.xq3.qsky130_fd_pr__pnp_05v5_w0p68l0p68#collcx = 2.871093e-04
q.xq4.qsky130_fd_pr__pnp_05v5_w0p68l0p68#collcx = 2.871093e-04
q.xq8.qsky130_fd_pr__pnp_05v5_w0p68l0p68#collcx = 2.871093e-04
q.xq10.qsky130_fd_pr__pnp_05v5_w0p68l0p68#collcx = 2.871093e-04
q.xq12.qsky130_fd_pr__pnp_05v5_w0p68l0p68#collcx = 2.871093e-04
q.xq14.qsky130_fd_pr__pnp_05v5_w0p68l0p68#collcx = 2.871093e-04
q.xq16.qsky130_fd_pr__pnp_05v5_w0p68l0p68#collcx = 2.871093e-04
q.xq18.qsky130_fd_pr__pnp_05v5_w0p68l0p68#collcx = 2.871093e-04
vb = 9.665992e-01
vdd = 2.500000e+00
vs#branch = -1.00091e-01
vt#branch = 0.000000e+00
xc1.a = 0.000000e+00
xc1.b1 = 0.000000e+00
xc3.a = 1.026722e+00
xc3.b1 = 1.026722e+00
xr1.xsky130_fd_pr__res_xhigh_po_0p69.ra = 7.902193e-01
xr2.xsky130_fd_pr__res_xhigh_po_0p69.ra = 7.902355e-01
xr3.xsky130_fd_pr__res_xhigh_po_0p69.ra = 1.966688e-03
xr4.xsky130_fd_pr__res_xhigh_po_0p69.ra = 7.284396e-01
xr5.xsky130_fd_pr__res_xhigh_po_0p69.ra = 1.966644e-03
xr6.xsky130_fd_pr__res_xhigh_po_0p69.ra = 3.086708e-03
xr7.xsky130_fd_pr__res_xhigh_po_0p69.ra = 1.026722e+00
xr8.xsky130_fd_pr__res_xhigh_po_0p69.ra = 1.200981e+00
xr9.xsky130_fd_pr__res_xhigh_po_0p69.ra = 5.380223e-03
Doing analysis at TEMP = 27.000000 and TNOM = 27.000000


No. of Data Rows : 91
Note: Starting true gmin stepping
Trying gmin =   1.0000E-03 Note: One successful gmin step
Trying gmin =   1.0000E-04 Note: One successful gmin step
Trying gmin =   1.0000E-05 Note: One successful gmin step
Trying gmin =   1.0000E-06 Note: One successful gmin step
Trying gmin =   1.0000E-07 Note: One successful gmin step
Trying gmin =   1.0000E-08 Warning: Further gmin increment
Trying gmin =   5.6234E-08 Warning: Further gmin increment
Trying gmin =   8.6596E-08 Note: One successful gmin step
Trying gmin =   6.9783E-08 Note: One successful gmin step
Trying gmin =   5.0481E-08 Warning: Further gmin increment
Trying gmin =   6.4357E-08 Note: One successful gmin step
Trying gmin =   5.6998E-08 Warning: Further gmin increment
Trying gmin =   6.2432E-08 Note: One successful gmin step
Trying gmin =   5.9653E-08 Warning: Further gmin increment
Trying gmin =   6.1726E-08 Note: One successful gmin step
Trying gmin =   6.0681E-08 Note: One successful gmin step
Trying gmin =   5.9146E-08 Warning: Further gmin increment
Trying gmin =   6.0293E-08 Warning: Further gmin increment
Trying gmin =   6.0584E-08 Note: One successful gmin step
Trying gmin =   6.0438E-08 Warning: Further gmin increment
Trying gmin =   6.0547E-08 Note: One successful gmin step
Trying gmin =   6.0493E-08 Warning: Further gmin increment
Trying gmin =   6.0534E-08 Note: One successful gmin step
Trying gmin =   6.0513E-08 Note: One successful gmin step
Trying gmin =   6.0483E-08 Warning: Further gmin increment
Trying gmin =   6.0506E-08 Note: One successful gmin step
Trying gmin =   6.0494E-08 Warning: Further gmin increment
Trying gmin =   6.0503E-08 Note: One successful gmin step
Trying gmin =   6.0498E-08 Note: One successful gmin step
Trying gmin =   6.0492E-08 Warning: Further gmin increment
Trying gmin =   6.0497E-08 Note: One successful gmin step
Trying gmin =   6.0494E-08 Warning: Last gmin step failed
Warning: True gmin stepping failed
Note: Starting dynamic gmin stepping
Trying gmin =   1.0000E-03 Note: One successful gmin step
Trying gmin =   1.0000E-04 Note: One successful gmin step
Trying gmin =   1.0000E-05 Note: One successful gmin step
Trying gmin =   1.0000E-06 Warning: Further gmin increment
Trying gmin =   5.6234E-06 Note: One successful gmin step
Trying gmin =   2.3714E-06 Note: One successful gmin step
Trying gmin =   1.0000E-06 Warning: Further gmin increment
Trying gmin =   1.9110E-06 Note: One successful gmin step
Trying gmin =   1.3824E-06 Warning: Further gmin increment
Trying gmin =   1.7624E-06 Note: One successful gmin step
Trying gmin =   1.5608E-06 Note: One successful gmin step
Trying gmin =   1.3009E-06 Warning: Further gmin increment
Trying gmin =   1.4914E-06 Note: One successful gmin step
Trying gmin =   1.3929E-06 Note: One successful gmin step
Trying gmin =   1.2573E-06 Note: One successful gmin step
Trying gmin =   1.0782E-06 Note: One successful gmin step
Trying gmin =   8.5619E-07 Note: One successful gmin step
Trying gmin =   6.0590E-07 Note: One successful gmin step
Trying gmin =   3.6070E-07 Note: One successful gmin step
Trying gmin =   1.6568E-07 Note: One successful gmin step
Trying gmin =   5.1576E-08 Note: One successful gmin step
Trying gmin =   8.9580E-09 Note: One successful gmin step
Trying gmin =   8.9580E-10 Note: One successful gmin step
Trying gmin =   8.9580E-11 Note: One successful gmin step
Trying gmin =   8.9580E-12 Note: One successful gmin step
Trying gmin =   1.0000E-12 Note: One successful gmin step
Note: Dynamic gmin stepping completed
 Reference value :  2.80000e+00Note: Starting true gmin stepping
Trying gmin =   1.0000E-03 Note: One successful gmin step
Trying gmin =   1.0000E-04 Note: One successful gmin step
Trying gmin =   1.0000E-05 Note: One successful gmin step
Trying gmin =   1.0000E-06 Note: One successful gmin step
Trying gmin =   1.0000E-07 Note: One successful gmin step
Trying gmin =   1.0000E-08 Note: One successful gmin step
Trying gmin =   1.0000E-09 Warning: Further gmin increment
Trying gmin =   5.6234E-09 Note: One successful gmin step
Trying gmin =   2.3714E-09 Note: One successful gmin step
Trying gmin =   1.0000E-09 Warning: Further gmin increment
Trying gmin =   1.9110E-09 Note: One successful gmin step
Trying gmin =   1.3824E-09 Note: One successful gmin step
Trying gmin =   1.0000E-09 Note: One successful gmin step
Trying gmin =   6.1527E-10 Note: One successful gmin step
Trying gmin =   2.9693E-10 Note: One successful gmin step
Trying gmin =   9.9551E-11 Note: One successful gmin step
Trying gmin =   1.9326E-11 Note: One successful gmin step
Trying gmin =   1.9326E-12 Note: One successful gmin step
Trying gmin =   1.0000E-12 Note: One successful gmin step
Note: True gmin stepping completed
 Reference value :  1.28000e+00Note: Starting true gmin stepping
Trying gmin =   1.0000E-03 Note: One successful gmin step
Trying gmin =   1.0000E-04 Note: One successful gmin step
Trying gmin =   1.0000E-05 Note: One successful gmin step
Trying gmin =   1.0000E-06 Note: One successful gmin step
Trying gmin =   1.0000E-07 Note: One successful gmin step
Trying gmin =   1.0000E-08 Note: One successful gmin step
Trying gmin =   1.0000E-09 Note: One successful gmin step
Trying gmin =   3.1623E-10 Note: One successful gmin step
Trying gmin =   5.6234E-11 Note: One successful gmin step
Trying gmin =   5.6234E-12 Note: One successful gmin step
Trying gmin =   1.0000E-12 Note: One successful gmin step
Note: True gmin stepping completed
pm                  =  3.576106e+01
Doing analysis at TEMP = 27.000000 and TNOM = 27.000000


No. of Data Rows : 91
psrr100             =  -8.450250e+01
psrr100k            =  -2.522497e+01
Doing analysis at TEMP = 27.000000 and TNOM = 27.000000


No. of Data Rows : 86
temp_coeff = 1.779486e+02
Doing analysis at TEMP = 27.000000 and TNOM = 27.000000


No. of Data Rows : 141
vldo_sup_2          =  1.798957e+00
vldo_sup_2_8        =  1.799279e+00
line_reg = 4.025000e-04
Note: No ".plot", ".print", or ".fourier" lines; no simulations run
vin                 =  1.932464e+00
dropout = 1.684640e-01
