 Reference value :  0.00000e+00
No compatibility mode selected!


Circuit: * ldo netlist 

Doing analysis at TEMP = 27.000000 and TNOM = 27.000000


No. of Data Rows : 1
bg_out = 1.198653e+00
inn = 1.233564e+00
inp = 1.233518e+00
l1#branch = 0.000000e+00
ldo_out = 1.803743e+00
m.xm1.msky130_fd_pr__nfet_g5v0d10v5#body = 1.578936e-11
m.xm1.msky130_fd_pr__nfet_g5v0d10v5#dbody = 3.301760e-11
m.xm1.msky130_fd_pr__nfet_g5v0d10v5#sbody = 1.435049e-11
m.xm2.msky130_fd_pr__pfet_g5v0d10v5#body = 2.300000e+00
m.xm2.msky130_fd_pr__pfet_g5v0d10v5#dbody = 2.300000e+00
m.xm2.msky130_fd_pr__pfet_g5v0d10v5#sbody = 2.300000e+00
m.xm3.msky130_fd_pr__pfet_g5v0d10v5#body = 2.300000e+00
m.xm3.msky130_fd_pr__pfet_g5v0d10v5#dbody = 2.300000e+00
m.xm3.msky130_fd_pr__pfet_g5v0d10v5#sbody = 2.300000e+00
m.xm4.msky130_fd_pr__pfet_g5v0d10v5#body = 2.300000e+00
m.xm4.msky130_fd_pr__pfet_g5v0d10v5#dbody = 2.300000e+00
m.xm4.msky130_fd_pr__pfet_g5v0d10v5#sbody = 2.300000e+00
m.xm5.msky130_fd_pr__pfet_g5v0d10v5#body = 2.300000e+00
m.xm5.msky130_fd_pr__pfet_g5v0d10v5#dbody = 2.300000e+00
m.xm5.msky130_fd_pr__pfet_g5v0d10v5#sbody = 2.300000e+00
m.xm6.msky130_fd_pr__nfet_g5v0d10v5#body = 1.228428e-11
m.xm6.msky130_fd_pr__nfet_g5v0d10v5#dbody = 3.071070e-11
m.xm6.msky130_fd_pr__nfet_g5v0d10v5#sbody = 6.142147e-12
m.xm7.msky130_fd_pr__pfet_g5v0d10v5#body = 2.300000e+00
m.xm7.msky130_fd_pr__pfet_g5v0d10v5#dbody = 2.300000e+00
m.xm7.msky130_fd_pr__pfet_g5v0d10v5#sbody = 2.300000e+00
m.xm8.msky130_fd_pr__pfet_g5v0d10v5#body = 2.300000e+00
m.xm8.msky130_fd_pr__pfet_g5v0d10v5#dbody = 2.300000e+00
m.xm8.msky130_fd_pr__pfet_g5v0d10v5#sbody = 2.300000e+00
m.xm9.msky130_fd_pr__nfet_g5v0d10v5#body = 1.650519e-11
m.xm9.msky130_fd_pr__nfet_g5v0d10v5#dbody = 3.581594e-11
m.xm9.msky130_fd_pr__nfet_g5v0d10v5#sbody = 1.369962e-11
m.xm10.msky130_fd_pr__nfet_g5v0d10v5#body = 1.629584e-11
m.xm10.msky130_fd_pr__nfet_g5v0d10v5#dbody = 3.529258e-11
m.xm10.msky130_fd_pr__nfet_g5v0d10v5#sbody = 1.359495e-11
m.xm11.msky130_fd_pr__pfet_g5v0d10v5#body = 2.300000e+00
m.xm11.msky130_fd_pr__pfet_g5v0d10v5#dbody = 2.300000e+00
m.xm11.msky130_fd_pr__pfet_g5v0d10v5#sbody = 2.300000e+00
m.xm12.msky130_fd_pr__pfet_g5v0d10v5#body = 2.300000e+00
m.xm12.msky130_fd_pr__pfet_g5v0d10v5#dbody = 2.300000e+00
m.xm12.msky130_fd_pr__pfet_g5v0d10v5#sbody = 2.300000e+00
m.xm13.msky130_fd_pr__nfet_g5v0d10v5#body = 2.722155e-12
m.xm13.msky130_fd_pr__nfet_g5v0d10v5#dbody = 6.805377e-12
m.xm13.msky130_fd_pr__nfet_g5v0d10v5#sbody = 1.361088e-12
m.xm14.msky130_fd_pr__pfet_g5v0d10v5#body = 2.300000e+00
m.xm14.msky130_fd_pr__pfet_g5v0d10v5#dbody = 2.300000e+00
m.xm14.msky130_fd_pr__pfet_g5v0d10v5#sbody = 2.300000e+00
m.xm15.msky130_fd_pr__nfet_g5v0d10v5#body = 1.120413e-16
m.xm15.msky130_fd_pr__nfet_g5v0d10v5#dbody = 2.800978e-16
m.xm15.msky130_fd_pr__nfet_g5v0d10v5#sbody = 5.602594e-17
m.xm16.msky130_fd_pr__nfet_g5v0d10v5#body = 4.417828e-11
m.xm16.msky130_fd_pr__nfet_g5v0d10v5#dbody = 7.959787e-11
m.xm16.msky130_fd_pr__nfet_g5v0d10v5#sbody = 5.293697e-11
m.xm17.msky130_fd_pr__pfet_g5v0d10v5#body = 2.300000e+00
m.xm17.msky130_fd_pr__pfet_g5v0d10v5#dbody = 2.300000e+00
m.xm17.msky130_fd_pr__pfet_g5v0d10v5#sbody = 2.300000e+00
m.xm18.msky130_fd_pr__nfet_g5v0d10v5#body = 1.411569e-11
m.xm18.msky130_fd_pr__nfet_g5v0d10v5#dbody = 3.528921e-11
m.xm18.msky130_fd_pr__nfet_g5v0d10v5#sbody = 7.057857e-12
m.xm19.msky130_fd_pr__nfet_g5v0d10v5#body = 1.585685e-11
m.xm19.msky130_fd_pr__nfet_g5v0d10v5#dbody = 3.318632e-11
m.xm19.msky130_fd_pr__nfet_g5v0d10v5#sbody = 1.438424e-11
m.xm20.msky130_fd_pr__nfet_g5v0d10v5#body = 1.286161e-11
m.xm20.msky130_fd_pr__nfet_g5v0d10v5#dbody = 3.215402e-11
m.xm20.msky130_fd_pr__nfet_g5v0d10v5#sbody = 6.430820e-12
m.xm22.msky130_fd_pr__nfet_g5v0d10v5#body = 3.230617e-12
m.xm22.msky130_fd_pr__nfet_g5v0d10v5#dbody = 8.076538e-12
m.xm22.msky130_fd_pr__nfet_g5v0d10v5#sbody = 1.615313e-12
m.xm24.msky130_fd_pr__pfet_g5v0d10v5#body = 2.300000e+00
m.xm24.msky130_fd_pr__pfet_g5v0d10v5#dbody = 2.300000e+00
m.xm24.msky130_fd_pr__pfet_g5v0d10v5#sbody = 2.300000e+00
m.xm26.msky130_fd_pr__pfet_g5v0d10v5#body = 2.300000e+00
m.xm26.msky130_fd_pr__pfet_g5v0d10v5#dbody = 2.300000e+00
m.xm26.msky130_fd_pr__pfet_g5v0d10v5#sbody = 2.300000e+00
mir = 1.004567e+00
net1 = 7.329052e-01
net2 = 8.620187e-06
net3 = 7.924449e-01
net4 = 2.578829e-01
net5 = 1.009967e+00
net6 = 9.821761e-01
net7 = 7.923977e-01
net8 = 1.085546e+00
net9 = 1.102293e+00
net10 = 2.176402e-01
net11 = 1.129123e+00
net12 = 1.129123e+00
net13 = 0.000000e+00
out = 1.129123e+00
pos = 1.198822e+00
q.xq2.qsky130_fd_pr__pnp_05v5_w0p68l0p68#collcx = 2.121037e-03
q.xq3.qsky130_fd_pr__pnp_05v5_w0p68l0p68#collcx = 2.691146e-04
q.xq4.qsky130_fd_pr__pnp_05v5_w0p68l0p68#collcx = 2.691146e-04
q.xq8.qsky130_fd_pr__pnp_05v5_w0p68l0p68#collcx = 2.691146e-04
q.xq10.qsky130_fd_pr__pnp_05v5_w0p68l0p68#collcx = 2.691146e-04
q.xq12.qsky130_fd_pr__pnp_05v5_w0p68l0p68#collcx = 2.691146e-04
q.xq14.qsky130_fd_pr__pnp_05v5_w0p68l0p68#collcx = 2.691146e-04
q.xq16.qsky130_fd_pr__pnp_05v5_w0p68l0p68#collcx = 2.691146e-04
q.xq18.qsky130_fd_pr__pnp_05v5_w0p68l0p68#collcx = 2.691146e-04
vb = 1.028797e+00
vdd = 2.300000e+00
vs#branch = -1.01520e-02
vt#branch = 0.000000e+00
xc1.a = 0.000000e+00
xc1.b1 = 0.000000e+00
xc3.a = 1.129123e+00
xc3.b1 = 1.129123e+00
xr1.xsky130_fd_pr__res_xhigh_po_0p69.ra = 7.953081e-01
xr2.xsky130_fd_pr__res_xhigh_po_0p69.ra = 7.953553e-01
xr3.xsky130_fd_pr__res_xhigh_po_0p69.ra = 1.980306e-03
xr4.xsky130_fd_pr__res_xhigh_po_0p69.ra = 7.338744e-01
xr5.xsky130_fd_pr__res_xhigh_po_0p69.ra = 1.980181e-03
xr6.xsky130_fd_pr__res_xhigh_po_0p69.ra = 3.094862e-03
xr7.xsky130_fd_pr__res_xhigh_po_0p69.ra = 1.129123e+00
xr8.xsky130_fd_pr__res_xhigh_po_0p69.ra = 1.203965e+00
xr9.xsky130_fd_pr__res_xhigh_po_0p69.ra = 5.394785e-03
Doing analysis at TEMP = 27.000000 and TNOM = 27.000000


No. of Data Rows : 91
Note: Starting true gmin stepping
Trying gmin =   1.0000E-03 Note: One successful gmin step
Trying gmin =   1.0000E-04 Note: One successful gmin step
Trying gmin =   1.0000E-05 Note: One successful gmin step
Trying gmin =   1.0000E-06 Note: One successful gmin step
Trying gmin =   1.0000E-07 Note: One successful gmin step
Trying gmin =   1.0000E-08 Warning: Further gmin increment
Trying gmin =   5.6234E-08 Warning: Further gmin increment
Trying gmin =   8.6596E-08 Note: One successful gmin step
Trying gmin =   6.9783E-08 Warning: Further gmin increment
Trying gmin =   8.2047E-08 Note: One successful gmin step
Trying gmin =   7.5667E-08 Note: One successful gmin step
Trying gmin =   6.7015E-08 Warning: Further gmin increment
Trying gmin =   7.3404E-08 Warning: Further gmin increment
Trying gmin =   7.5095E-08 Warning: Further gmin increment
Trying gmin =   7.5524E-08 Note: One successful gmin step
Trying gmin =   7.5309E-08 Note: One successful gmin step
Trying gmin =   7.4988E-08 Warning: Further gmin increment
Trying gmin =   7.5229E-08 Note: One successful gmin step
Trying gmin =   7.5108E-08 Warning: Further gmin increment
Trying gmin =   7.5198E-08 Note: One successful gmin step
Trying gmin =   7.5153E-08 Warning: Further gmin increment
Trying gmin =   7.5187E-08 Note: One successful gmin step
Trying gmin =   7.5170E-08 Warning: Further gmin increment
Trying gmin =   7.5183E-08 Note: One successful gmin step
Trying gmin =   7.5177E-08 Warning: Further gmin increment
Trying gmin =   7.5181E-08 Note: One successful gmin step
Trying gmin =   7.5179E-08 Warning: Last gmin step failed
Warning: True gmin stepping failed
Note: Starting dynamic gmin stepping
Trying gmin =   1.0000E-03 Note: One successful gmin step
Trying gmin =   1.0000E-04 Note: One successful gmin step
Trying gmin =   1.0000E-05 Warning: Further gmin increment
Trying gmin =   5.6234E-05 Note: One successful gmin step
Trying gmin =   2.3714E-05 Note: One successful gmin step
Trying gmin =   6.4938E-06 Warning: Further gmin increment
Trying gmin =   1.7154E-05 Note: One successful gmin step
Trying gmin =   1.0554E-05 Warning: Further gmin increment
Trying gmin =   1.5193E-05 Note: One successful gmin step
Trying gmin =   1.2663E-05 Note: One successful gmin step
Trying gmin =   9.6358E-06 Warning: Further gmin increment
Trying gmin =   1.1827E-05 Note: One successful gmin step
Trying gmin =   1.0675E-05 Note: One successful gmin step
Trying gmin =   9.1546E-06 Note: One successful gmin step
Trying gmin =   7.2699E-06 Note: One successful gmin step
Trying gmin =   5.1447E-06 Note: One successful gmin step
Trying gmin =   3.6407E-06 Note: One successful gmin step
Trying gmin =   2.1674E-06 Note: One successful gmin step
Trying gmin =   9.9553E-07 Warning: Further gmin increment
Trying gmin =   1.7843E-06 Note: One successful gmin step
Trying gmin =   1.3328E-06 Warning: Further gmin increment
Trying gmin =   1.6588E-06 Warning: Further gmin increment
Trying gmin =   1.7520E-06 Note: One successful gmin step
Trying gmin =   1.7048E-06 Note: One successful gmin step
Trying gmin =   1.6362E-06 Note: One successful gmin step
Trying gmin =   1.5386E-06 Note: One successful gmin step
Trying gmin =   1.4029E-06 Note: One successful gmin step
Trying gmin =   1.2215E-06 Note: One successful gmin step
Trying gmin =   9.9241E-07 Note: One successful gmin step
Trying gmin =   7.2675E-07 Note: One successful gmin step
Trying gmin =   4.5544E-07 Note: One successful gmin step
Trying gmin =   2.2594E-07 Note: One successful gmin step
Trying gmin =   7.8947E-08 Note: One successful gmin step
Trying gmin =   1.6306E-08 Note: One successful gmin step
Trying gmin =   1.6306E-09 Note: One successful gmin step
Trying gmin =   1.6306E-10 Note: One successful gmin step
Trying gmin =   1.6306E-11 Note: One successful gmin step
Trying gmin =   1.6306E-12 Note: One successful gmin step
Trying gmin =   1.0000E-12 Note: One successful gmin step
Note: Dynamic gmin stepping completed
 Reference value :  2.80000e+00Note: Starting true gmin stepping
Trying gmin =   1.0000E-03 Note: One successful gmin step
Trying gmin =   1.0000E-04 Note: One successful gmin step
Trying gmin =   1.0000E-05 Note: One successful gmin step
Trying gmin =   1.0000E-06 Note: One successful gmin step
Trying gmin =   1.0000E-07 Note: One successful gmin step
Trying gmin =   1.0000E-08 Warning: Further gmin increment
Trying gmin =   5.6234E-08 Note: One successful gmin step
Trying gmin =   2.3714E-08 Note: One successful gmin step
Trying gmin =   6.4938E-09 Note: One successful gmin step
Trying gmin =   9.3057E-10 Warning: Further gmin increment
Trying gmin =   3.9954E-09 Note: One successful gmin step
Trying gmin =   1.9282E-09 Note: One successful gmin step
Trying gmin =   6.4647E-10 Warning: Further gmin increment
Trying gmin =   1.4672E-09 Note: One successful gmin step
Trying gmin =   9.7392E-10 Note: One successful gmin step
Trying gmin =   5.2669E-10 Note: One successful gmin step
Trying gmin =   2.0946E-10 Note: One successful gmin step
Trying gmin =   5.2533E-11 Note: One successful gmin step
Trying gmin =   6.5980E-12 Note: One successful gmin step
Trying gmin =   1.0000E-12 Note: One successful gmin step
Note: True gmin stepping completed
 Reference value :  1.42000e+00Note: Starting true gmin stepping
Trying gmin =   1.0000E-03 Note: One successful gmin step
Trying gmin =   1.0000E-04 Note: One successful gmin step
Trying gmin =   1.0000E-05 Note: One successful gmin step
Trying gmin =   1.0000E-06 Note: One successful gmin step
Trying gmin =   1.0000E-07 Note: One successful gmin step
Trying gmin =   1.0000E-08 Note: One successful gmin step
Trying gmin =   1.0000E-09 Warning: Further gmin increment
Trying gmin =   5.6234E-09 Note: One successful gmin step
Trying gmin =   2.3714E-09 Warning: Further gmin increment
Trying gmin =   4.5316E-09 Note: One successful gmin step
Trying gmin =   3.2781E-09 Note: One successful gmin step
Trying gmin =   2.0169E-09 Note: One successful gmin step
Trying gmin =   9.7338E-10 Note: One successful gmin step
Trying gmin =   3.2634E-10 Warning: Further gmin increment
Trying gmin =   7.4068E-10 Warning: Further gmin increment
Trying gmin =   9.0911E-10 Warning: Further gmin increment
Trying gmin =   9.5690E-10 Note: One successful gmin step
Trying gmin =   9.3270E-10 Note: One successful gmin step
Trying gmin =   8.9755E-10 Warning: Further gmin increment
Trying gmin =   9.2378E-10 Note: One successful gmin step
Trying gmin =   9.1057E-10 Note: One successful gmin step
Trying gmin =   8.9110E-10 Note: One successful gmin step
Trying gmin =   8.6268E-10 Note: One successful gmin step
Trying gmin =   8.2174E-10 Note: One successful gmin step
Trying gmin =   7.6393E-10 Note: One successful gmin step
Trying gmin =   6.8476E-10 Note: One successful gmin step
Trying gmin =   5.8112E-10 Note: One successful gmin step
Trying gmin =   4.5432E-10 Note: One successful gmin step
Trying gmin =   3.1405E-10 Note: One successful gmin step
Trying gmin =   1.8049E-10 Note: One successful gmin step
Trying gmin =   7.8640E-11 Note: One successful gmin step
Trying gmin =   2.2616E-11 Note: One successful gmin step
Trying gmin =   3.4881E-12 Note: One successful gmin step
Trying gmin =   1.0000E-12 Note: One successful gmin step
Note: True gmin stepping completed
 Reference value :  1.40000e+00pm                  =  -8.921364e+01
Doing analysis at TEMP = 27.000000 and TNOM = 27.000000


No. of Data Rows : 91
psrr100             =  -7.796509e+01
psrr100k            =  -2.557997e+01
Doing analysis at TEMP = 27.000000 and TNOM = 27.000000


No. of Data Rows : 86
temp_coeff = 1.822120e+02
Doing analysis at TEMP = 27.000000 and TNOM = 27.000000


No. of Data Rows : 141
vldo_sup_2          =  1.803594e+00
vldo_sup_2_8        =  1.803761e+00
line_reg = 2.087500e-04
Note: No ".plot", ".print", or ".fourier" lines; no simulations run
vin                 =  1.785409e+00
dropout = 2.140900e-02
