 Reference value :  0.00000e+00
No compatibility mode selected!


Circuit: * ldo netlist 

Doing analysis at TEMP = 27.000000 and TNOM = 27.000000


No. of Data Rows : 1
bg_out = 1.192538e+00
inn = 1.222491e+00
inp = 1.222469e+00
l1#branch = 0.000000e+00
ldo_out = 1.793243e+00
m.xm1.msky130_fd_pr__nfet_g5v0d10v5#body = 2.026237e-11
m.xm1.msky130_fd_pr__nfet_g5v0d10v5#dbody = 4.462625e-11
m.xm1.msky130_fd_pr__nfet_g5v0d10v5#sbody = 1.616084e-11
m.xm2.msky130_fd_pr__pfet_g5v0d10v5#body = 2.500000e+00
m.xm2.msky130_fd_pr__pfet_g5v0d10v5#dbody = 2.500000e+00
m.xm2.msky130_fd_pr__pfet_g5v0d10v5#sbody = 2.500000e+00
m.xm3.msky130_fd_pr__pfet_g5v0d10v5#body = 2.500000e+00
m.xm3.msky130_fd_pr__pfet_g5v0d10v5#dbody = 2.500000e+00
m.xm3.msky130_fd_pr__pfet_g5v0d10v5#sbody = 2.500000e+00
m.xm4.msky130_fd_pr__pfet_g5v0d10v5#body = 2.500000e+00
m.xm4.msky130_fd_pr__pfet_g5v0d10v5#dbody = 2.500000e+00
m.xm4.msky130_fd_pr__pfet_g5v0d10v5#sbody = 2.500000e+00
m.xm5.msky130_fd_pr__pfet_g5v0d10v5#body = 2.500000e+00
m.xm5.msky130_fd_pr__pfet_g5v0d10v5#dbody = 2.500000e+00
m.xm5.msky130_fd_pr__pfet_g5v0d10v5#sbody = 2.500000e+00
m.xm6.msky130_fd_pr__nfet_g5v0d10v5#body = 1.235962e-11
m.xm6.msky130_fd_pr__nfet_g5v0d10v5#dbody = 3.089903e-11
m.xm6.msky130_fd_pr__nfet_g5v0d10v5#sbody = 6.179812e-12
m.xm7.msky130_fd_pr__pfet_g5v0d10v5#body = 2.500000e+00
m.xm7.msky130_fd_pr__pfet_g5v0d10v5#dbody = 2.500000e+00
m.xm7.msky130_fd_pr__pfet_g5v0d10v5#sbody = 2.500000e+00
m.xm8.msky130_fd_pr__pfet_g5v0d10v5#body = 2.500000e+00
m.xm8.msky130_fd_pr__pfet_g5v0d10v5#dbody = 2.500000e+00
m.xm8.msky130_fd_pr__pfet_g5v0d10v5#sbody = 2.500000e+00
m.xm9.msky130_fd_pr__nfet_g5v0d10v5#body = 2.091770e-11
m.xm9.msky130_fd_pr__nfet_g5v0d10v5#dbody = 4.718230e-11
m.xm9.msky130_fd_pr__nfet_g5v0d10v5#sbody = 1.557060e-11
m.xm10.msky130_fd_pr__nfet_g5v0d10v5#body = 2.072756e-11
m.xm10.msky130_fd_pr__nfet_g5v0d10v5#dbody = 4.670702e-11
m.xm10.msky130_fd_pr__nfet_g5v0d10v5#sbody = 1.547553e-11
m.xm11.msky130_fd_pr__pfet_g5v0d10v5#body = 2.500000e+00
m.xm11.msky130_fd_pr__pfet_g5v0d10v5#dbody = 2.500000e+00
m.xm11.msky130_fd_pr__pfet_g5v0d10v5#sbody = 2.500000e+00
m.xm12.msky130_fd_pr__pfet_g5v0d10v5#body = 2.500000e+00
m.xm12.msky130_fd_pr__pfet_g5v0d10v5#dbody = 2.500000e+00
m.xm12.msky130_fd_pr__pfet_g5v0d10v5#sbody = 2.500000e+00
m.xm13.msky130_fd_pr__nfet_g5v0d10v5#body = 2.554518e-12
m.xm13.msky130_fd_pr__nfet_g5v0d10v5#dbody = 6.386286e-12
m.xm13.msky130_fd_pr__nfet_g5v0d10v5#sbody = 1.277269e-12
m.xm14.msky130_fd_pr__pfet_g5v0d10v5#body = 2.500000e+00
m.xm14.msky130_fd_pr__pfet_g5v0d10v5#dbody = 2.500000e+00
m.xm14.msky130_fd_pr__pfet_g5v0d10v5#sbody = 2.500000e+00
m.xm15.msky130_fd_pr__nfet_g5v0d10v5#body = 1.766252e-15
m.xm15.msky130_fd_pr__nfet_g5v0d10v5#dbody = 4.415559e-15
m.xm15.msky130_fd_pr__nfet_g5v0d10v5#sbody = 8.831975e-16
m.xm16.msky130_fd_pr__nfet_g5v0d10v5#body = 4.653989e-11
m.xm16.msky130_fd_pr__nfet_g5v0d10v5#dbody = 8.577870e-11
m.xm16.msky130_fd_pr__nfet_g5v0d10v5#sbody = 5.384097e-11
m.xm17.msky130_fd_pr__pfet_g5v0d10v5#body = 2.500000e+00
m.xm17.msky130_fd_pr__pfet_g5v0d10v5#dbody = 2.500000e+00
m.xm17.msky130_fd_pr__pfet_g5v0d10v5#sbody = 2.500000e+00
m.xm18.msky130_fd_pr__nfet_g5v0d10v5#body = 1.464101e-11
m.xm18.msky130_fd_pr__nfet_g5v0d10v5#dbody = 3.660252e-11
m.xm18.msky130_fd_pr__nfet_g5v0d10v5#sbody = 7.320518e-12
m.xm19.msky130_fd_pr__nfet_g5v0d10v5#body = 2.030243e-11
m.xm19.msky130_fd_pr__nfet_g5v0d10v5#dbody = 4.472641e-11
m.xm19.msky130_fd_pr__nfet_g5v0d10v5#sbody = 1.618087e-11
m.xm20.msky130_fd_pr__nfet_g5v0d10v5#body = 1.298561e-11
m.xm20.msky130_fd_pr__nfet_g5v0d10v5#dbody = 3.246400e-11
m.xm20.msky130_fd_pr__nfet_g5v0d10v5#sbody = 6.492815e-12
m.xm22.msky130_fd_pr__nfet_g5v0d10v5#body = 3.017540e-12
m.xm22.msky130_fd_pr__nfet_g5v0d10v5#dbody = 7.543845e-12
m.xm22.msky130_fd_pr__nfet_g5v0d10v5#sbody = 1.508774e-12
m.xm24.msky130_fd_pr__pfet_g5v0d10v5#body = 2.500000e+00
m.xm24.msky130_fd_pr__pfet_g5v0d10v5#dbody = 2.500000e+00
m.xm24.msky130_fd_pr__pfet_g5v0d10v5#sbody = 2.500000e+00
m.xm26.msky130_fd_pr__pfet_g5v0d10v5#body = 2.500000e+00
m.xm26.msky130_fd_pr__pfet_g5v0d10v5#dbody = 2.500000e+00
m.xm26.msky130_fd_pr__pfet_g5v0d10v5#sbody = 2.500000e+00
mir = 1.379453e+00
net1 = 7.251325e-01
net2 = 1.358997e-04
net3 = 7.846824e-01
net4 = 2.408361e-01
net5 = 1.382658e+00
net6 = 9.882019e-01
net7 = 7.846594e-01
net8 = 1.453488e+00
net9 = 1.468697e+00
net10 = 2.042286e-01
net11 = 1.171148e+00
net12 = 1.171148e+00
net13 = 0.000000e+00
out = 1.171148e+00
pos = 1.192685e+00
q.xq2.qsky130_fd_pr__pnp_05v5_w0p68l0p68#collcx = 2.094097e-03
q.xq3.qsky130_fd_pr__pnp_05v5_w0p68l0p68#collcx = 2.636972e-04
q.xq4.qsky130_fd_pr__pnp_05v5_w0p68l0p68#collcx = 2.636972e-04
q.xq8.qsky130_fd_pr__pnp_05v5_w0p68l0p68#collcx = 2.636972e-04
q.xq10.qsky130_fd_pr__pnp_05v5_w0p68l0p68#collcx = 2.636972e-04
q.xq12.qsky130_fd_pr__pnp_05v5_w0p68l0p68#collcx = 2.636972e-04
q.xq14.qsky130_fd_pr__pnp_05v5_w0p68l0p68#collcx = 2.636972e-04
q.xq16.qsky130_fd_pr__pnp_05v5_w0p68l0p68#collcx = 2.636972e-04
q.xq18.qsky130_fd_pr__pnp_05v5_w0p68l0p68#collcx = 2.636972e-04
vb = 1.038715e+00
vdd = 2.500000e+00
vs#branch = -9.97452e-02
vt#branch = 0.000000e+00
xc1.a = 0.000000e+00
xc1.b1 = 0.000000e+00
xc3.a = 1.171148e+00
xc3.b1 = 1.171148e+00
xr1.xsky130_fd_pr__res_xhigh_po_0p69.ra = 7.922071e-01
xr2.xsky130_fd_pr__res_xhigh_po_0p69.ra = 7.922301e-01
xr3.xsky130_fd_pr__res_xhigh_po_0p69.ra = 5.108784e-03
xr4.xsky130_fd_pr__res_xhigh_po_0p69.ra = 7.276701e-01
xr5.xsky130_fd_pr__res_xhigh_po_0p69.ra = 5.108625e-03
xr6.xsky130_fd_pr__res_xhigh_po_0p69.ra = 8.022419e-03
xr7.xsky130_fd_pr__res_xhigh_po_0p69.ra = 1.171148e+00
xr8.xsky130_fd_pr__res_xhigh_po_0p69.ra = 1.206033e+00
xr9.xsky130_fd_pr__res_xhigh_po_0p69.ra = 1.399819e-02
Doing analysis at TEMP = 27.000000 and TNOM = 27.000000


No. of Data Rows : 91
Note: Starting true gmin stepping
Trying gmin =   1.0000E-03 Note: One successful gmin step
Trying gmin =   1.0000E-04 Note: One successful gmin step
Trying gmin =   1.0000E-05 Note: One successful gmin step
Trying gmin =   1.0000E-06 Warning: Further gmin increment
Trying gmin =   5.6234E-06 Note: One successful gmin step
Trying gmin =   2.3714E-06 Note: One successful gmin step
Trying gmin =   6.4938E-07 Warning: Further gmin increment
Trying gmin =   1.7154E-06 Note: One successful gmin step
Trying gmin =   1.0554E-06 Note: One successful gmin step
Trying gmin =   5.0937E-07 Warning: Further gmin increment
Trying gmin =   8.7970E-07 Note: One successful gmin step
Trying gmin =   6.6940E-07 Note: One successful gmin step
Trying gmin =   4.4433E-07 Note: One successful gmin step
Trying gmin =   2.4029E-07 Note: One successful gmin step
Trying gmin =   9.5562E-08 Warning: Further gmin increment
Trying gmin =   1.9082E-07 Note: One successful gmin step
Trying gmin =   1.3504E-07 Note: One successful gmin step
Trying gmin =   1.1360E-07 Note: One successful gmin step
Trying gmin =   8.7648E-08 Note: One successful gmin step
Trying gmin =   5.9402E-08 Note: One successful gmin step
Trying gmin =   3.3143E-08 Note: One successful gmin step
Trying gmin =   1.3813E-08 Note: One successful gmin step
Trying gmin =   3.7162E-09 Note: One successful gmin step
Trying gmin =   5.1861E-10 Note: One successful gmin step
Trying gmin =   5.1861E-11 Note: One successful gmin step
Trying gmin =   5.1861E-12 Note: One successful gmin step
Trying gmin =   1.0000E-12 Note: One successful gmin step
Note: True gmin stepping completed
 Reference value :  2.80000e+00Note: Starting true gmin stepping
Trying gmin =   1.0000E-03 Note: One successful gmin step
Trying gmin =   1.0000E-04 Note: One successful gmin step
Trying gmin =   1.0000E-05 Note: One successful gmin step
Trying gmin =   1.0000E-06 Note: One successful gmin step
Trying gmin =   1.0000E-07 Note: One successful gmin step
Trying gmin =   1.0000E-08 Warning: Further gmin increment
Trying gmin =   5.6234E-08 Note: One successful gmin step
Trying gmin =   2.3714E-08 Note: One successful gmin step
Trying gmin =   6.4938E-09 Note: One successful gmin step
Trying gmin =   9.3057E-10 Note: One successful gmin step
Trying gmin =   9.3057E-11 Note: One successful gmin step
Trying gmin =   9.3057E-12 Note: One successful gmin step
Trying gmin =   2.9427E-12 Note: One successful gmin step
Trying gmin =   1.0000E-12 Note: One successful gmin step
Note: True gmin stepping completed
Note: Starting true gmin stepping
Trying gmin =   1.0000E-03 Note: One successful gmin step
Trying gmin =   1.0000E-04 Note: One successful gmin step
Trying gmin =   1.0000E-05 Note: One successful gmin step
Trying gmin =   1.0000E-06 Note: One successful gmin step
Trying gmin =   1.0000E-07 Note: One successful gmin step
Trying gmin =   1.0000E-08 Note: One successful gmin step
Trying gmin =   3.1623E-09 Note: One successful gmin step
Trying gmin =   5.6234E-10 Note: One successful gmin step
Trying gmin =   5.6234E-11 Note: One successful gmin step
Trying gmin =   1.7783E-11 Note: One successful gmin step
Trying gmin =   3.1623E-12 Warning: Further gmin increment
Trying gmin =   1.1548E-11 Warning: Further gmin increment
Trying gmin =   1.5963E-11 Note: One successful gmin step
Trying gmin =   1.3577E-11 Note: One successful gmin step
Trying gmin =   1.1548E-11 Note: One successful gmin step
Trying gmin =   9.0580E-12 Note: One successful gmin step
Trying gmin =   6.2926E-12 Note: One successful gmin step
Trying gmin =   3.6435E-12 Note: One successful gmin step
Trying gmin =   1.6053E-12 Note: One successful gmin step
Trying gmin =   1.0000E-12 Note: One successful gmin step
Note: True gmin stepping completed
 Reference value :  1.14000e+00pm                  =  2.327732e+01
Doing analysis at TEMP = 27.000000 and TNOM = 27.000000


No. of Data Rows : 91
psrr100             =  -8.361302e+01
psrr100k            =  -2.450655e+01
Doing analysis at TEMP = 27.000000 and TNOM = 27.000000


No. of Data Rows : 86
temp_coeff = 1.038545e+02
Doing analysis at TEMP = 27.000000 and TNOM = 27.000000


No. of Data Rows : 141
vldo_sup_2          =  1.793123e+00
vldo_sup_2_8        =  1.793223e+00
line_reg = 1.250000e-04
Note: No ".plot", ".print", or ".fourier" lines; no simulations run
vin                 =  1.901641e+00
dropout = 1.376410e-01
