 Reference value :  0.00000e+00
No compatibility mode selected!


Circuit: * ldo netlist 

Doing analysis at TEMP = 85.000000 and TNOM = 27.000000


No. of Data Rows : 1
bg_out = 1.197273e+00
inn = 1.143226e+00
inp = 1.143194e+00
l1#branch = 0.000000e+00
ldo_out = 1.800998e+00
m.xm1.msky130_fd_pr__nfet_g5v0d10v5#body = 2.854620e-11
m.xm1.msky130_fd_pr__nfet_g5v0d10v5#dbody = 5.381702e-11
m.xm1.msky130_fd_pr__nfet_g5v0d10v5#sbody = 3.182159e-11
m.xm2.msky130_fd_pr__pfet_g5v0d10v5#body = 2.300000e+00
m.xm2.msky130_fd_pr__pfet_g5v0d10v5#dbody = 2.300000e+00
m.xm2.msky130_fd_pr__pfet_g5v0d10v5#sbody = 2.300000e+00
m.xm3.msky130_fd_pr__pfet_g5v0d10v5#body = 2.300000e+00
m.xm3.msky130_fd_pr__pfet_g5v0d10v5#dbody = 2.300000e+00
m.xm3.msky130_fd_pr__pfet_g5v0d10v5#sbody = 2.300000e+00
m.xm4.msky130_fd_pr__pfet_g5v0d10v5#body = 2.300000e+00
m.xm4.msky130_fd_pr__pfet_g5v0d10v5#dbody = 2.300000e+00
m.xm4.msky130_fd_pr__pfet_g5v0d10v5#sbody = 2.300000e+00
m.xm5.msky130_fd_pr__pfet_g5v0d10v5#body = 2.300000e+00
m.xm5.msky130_fd_pr__pfet_g5v0d10v5#dbody = 2.300000e+00
m.xm5.msky130_fd_pr__pfet_g5v0d10v5#sbody = 2.300000e+00
m.xm6.msky130_fd_pr__nfet_g5v0d10v5#body = 1.973734e-11
m.xm6.msky130_fd_pr__nfet_g5v0d10v5#dbody = 4.934324e-11
m.xm6.msky130_fd_pr__nfet_g5v0d10v5#sbody = 9.868777e-12
m.xm7.msky130_fd_pr__pfet_g5v0d10v5#body = 2.300000e+00
m.xm7.msky130_fd_pr__pfet_g5v0d10v5#dbody = 2.300000e+00
m.xm7.msky130_fd_pr__pfet_g5v0d10v5#sbody = 2.300000e+00
m.xm8.msky130_fd_pr__pfet_g5v0d10v5#body = 2.300000e+00
m.xm8.msky130_fd_pr__pfet_g5v0d10v5#dbody = 2.300000e+00
m.xm8.msky130_fd_pr__pfet_g5v0d10v5#sbody = 2.300000e+00
m.xm9.msky130_fd_pr__nfet_g5v0d10v5#body = 2.671062e-11
m.xm9.msky130_fd_pr__nfet_g5v0d10v5#dbody = 5.195960e-11
m.xm9.msky130_fd_pr__nfet_g5v0d10v5#sbody = 2.817227e-11
m.xm10.msky130_fd_pr__nfet_g5v0d10v5#body = 2.646796e-11
m.xm10.msky130_fd_pr__nfet_g5v0d10v5#dbody = 5.135295e-11
m.xm10.msky130_fd_pr__nfet_g5v0d10v5#sbody = 2.805094e-11
m.xm11.msky130_fd_pr__pfet_g5v0d10v5#body = 2.300000e+00
m.xm11.msky130_fd_pr__pfet_g5v0d10v5#dbody = 2.300000e+00
m.xm11.msky130_fd_pr__pfet_g5v0d10v5#sbody = 2.300000e+00
m.xm12.msky130_fd_pr__pfet_g5v0d10v5#body = 2.300000e+00
m.xm12.msky130_fd_pr__pfet_g5v0d10v5#dbody = 2.300000e+00
m.xm12.msky130_fd_pr__pfet_g5v0d10v5#sbody = 2.300000e+00
m.xm13.msky130_fd_pr__nfet_g5v0d10v5#body = 5.760915e-12
m.xm13.msky130_fd_pr__nfet_g5v0d10v5#dbody = 1.440222e-11
m.xm13.msky130_fd_pr__nfet_g5v0d10v5#sbody = 2.880522e-12
m.xm14.msky130_fd_pr__pfet_g5v0d10v5#body = 2.300000e+00
m.xm14.msky130_fd_pr__pfet_g5v0d10v5#dbody = 2.300000e+00
m.xm14.msky130_fd_pr__pfet_g5v0d10v5#sbody = 2.300000e+00
m.xm15.msky130_fd_pr__nfet_g5v0d10v5#body = 1.314313e-14
m.xm15.msky130_fd_pr__nfet_g5v0d10v5#dbody = 3.285702e-14
m.xm15.msky130_fd_pr__nfet_g5v0d10v5#sbody = 6.572367e-15
m.xm16.msky130_fd_pr__nfet_g5v0d10v5#body = 5.359479e-11
m.xm16.msky130_fd_pr__nfet_g5v0d10v5#dbody = 9.485186e-11
m.xm16.msky130_fd_pr__nfet_g5v0d10v5#sbody = 6.593250e-11
m.xm17.msky130_fd_pr__pfet_g5v0d10v5#body = 2.300000e+00
m.xm17.msky130_fd_pr__pfet_g5v0d10v5#dbody = 2.300000e+00
m.xm17.msky130_fd_pr__pfet_g5v0d10v5#sbody = 2.300000e+00
m.xm18.msky130_fd_pr__nfet_g5v0d10v5#body = 2.254966e-11
m.xm18.msky130_fd_pr__nfet_g5v0d10v5#dbody = 5.621009e-11
m.xm18.msky130_fd_pr__nfet_g5v0d10v5#sbody = 1.127490e-11
m.xm19.msky130_fd_pr__nfet_g5v0d10v5#body = 2.859131e-11
m.xm19.msky130_fd_pr__nfet_g5v0d10v5#dbody = 5.392978e-11
m.xm19.msky130_fd_pr__nfet_g5v0d10v5#sbody = 3.184414e-11
m.xm20.msky130_fd_pr__nfet_g5v0d10v5#body = 1.341209e-11
m.xm20.msky130_fd_pr__nfet_g5v0d10v5#dbody = 3.353016e-11
m.xm20.msky130_fd_pr__nfet_g5v0d10v5#sbody = 6.706119e-12
m.xm22.msky130_fd_pr__nfet_g5v0d10v5#body = 1.206911e-11
m.xm22.msky130_fd_pr__nfet_g5v0d10v5#dbody = 3.017267e-11
m.xm22.msky130_fd_pr__nfet_g5v0d10v5#sbody = 6.034659e-12
m.xm24.msky130_fd_pr__pfet_g5v0d10v5#body = 2.300000e+00
m.xm24.msky130_fd_pr__pfet_g5v0d10v5#dbody = 2.300000e+00
m.xm24.msky130_fd_pr__pfet_g5v0d10v5#sbody = 2.300000e+00
m.xm26.msky130_fd_pr__pfet_g5v0d10v5#body = 2.300000e+00
m.xm26.msky130_fd_pr__pfet_g5v0d10v5#dbody = 2.300000e+00
m.xm26.msky130_fd_pr__pfet_g5v0d10v5#sbody = 2.300000e+00
mir = 1.159578e+00
net1 = 6.283793e-01
net2 = 2.537504e-05
net3 = 7.016599e-01
net4 = 2.798541e-01
net5 = 1.163187e+00
net6 = 8.931605e-01
net7 = 7.016271e-01
net8 = 1.234402e+00
net9 = 1.253815e+00
net10 = 3.023540e-01
net11 = 1.638876e+00
net12 = 1.638876e+00
net13 = 0.000000e+00
out = 1.638876e+00
pos = 1.197495e+00
q.xq2.qsky130_fd_pr__pnp_05v5_w0p68l0p68#collcx = 2.839347e-03
q.xq3.qsky130_fd_pr__pnp_05v5_w0p68l0p68#collcx = 3.581967e-04
q.xq4.qsky130_fd_pr__pnp_05v5_w0p68l0p68#collcx = 3.581967e-04
q.xq8.qsky130_fd_pr__pnp_05v5_w0p68l0p68#collcx = 3.581967e-04
q.xq10.qsky130_fd_pr__pnp_05v5_w0p68l0p68#collcx = 3.581967e-04
q.xq12.qsky130_fd_pr__pnp_05v5_w0p68l0p68#collcx = 3.581967e-04
q.xq14.qsky130_fd_pr__pnp_05v5_w0p68l0p68#collcx = 3.581967e-04
q.xq16.qsky130_fd_pr__pnp_05v5_w0p68l0p68#collcx = 3.581967e-04
q.xq18.qsky130_fd_pr__pnp_05v5_w0p68l0p68#collcx = 3.581967e-04
vb = 9.144302e-01
vdd = 2.300000e+00
vs#branch = -1.82549e-04
vt#branch = 0.000000e+00
xc1.a = 0.000000e+00
xc1.b1 = 0.000000e+00
xc3.a = 1.638876e+00
xc3.b1 = 1.638876e+00
xr1.xsky130_fd_pr__res_xhigh_po_0p69.ra = 7.098577e-01
xr2.xsky130_fd_pr__res_xhigh_po_0p69.ra = 7.098905e-01
xr3.xsky130_fd_pr__res_xhigh_po_0p69.ra = 4.908370e-03
xr4.xsky130_fd_pr__res_xhigh_po_0p69.ra = 6.317475e-01
xr5.xsky130_fd_pr__res_xhigh_po_0p69.ra = 4.908127e-03
xr6.xsky130_fd_pr__res_xhigh_po_0p69.ra = 8.716649e-03
xr7.xsky130_fd_pr__res_xhigh_po_0p69.ra = 1.638876e+00
xr8.xsky130_fd_pr__res_xhigh_po_0p69.ra = 1.211991e+00
xr9.xsky130_fd_pr__res_xhigh_po_0p69.ra = 1.520428e-02
Doing analysis at TEMP = 85.000000 and TNOM = 27.000000


No. of Data Rows : 91
Note: Starting true gmin stepping
Trying gmin =   1.0000E-03 Note: One successful gmin step
Trying gmin =   1.0000E-04 Note: One successful gmin step
Trying gmin =   1.0000E-05 Note: One successful gmin step
Trying gmin =   1.0000E-06 Note: One successful gmin step
Trying gmin =   1.0000E-07 Note: One successful gmin step
Trying gmin =   1.0000E-08 Warning: Further gmin increment
Trying gmin =   5.6234E-08 Error: -2.17057e+174, 2 out of range for ^
Warning: Further gmin increment
Trying gmin =   8.6596E-08 Note: One successful gmin step
Trying gmin =   6.9783E-08 Note: One successful gmin step
Trying gmin =   5.0481E-08 Warning: Further gmin increment
Trying gmin =   6.4357E-08 Warning: Further gmin increment
Trying gmin =   6.8385E-08 Note: One successful gmin step
Trying gmin =   6.6340E-08 Warning: Further gmin increment
Trying gmin =   6.7868E-08 Note: One successful gmin step
Trying gmin =   6.7100E-08 Warning: Further gmin increment
Trying gmin =   6.7675E-08 Note: One successful gmin step
Trying gmin =   6.7387E-08 Note: One successful gmin step
Trying gmin =   6.6957E-08 Warning: Further gmin increment
Trying gmin =   6.7279E-08 Note: One successful gmin step
Trying gmin =   6.7118E-08 Warning: Further gmin increment
Trying gmin =   6.7239E-08 Warning: Further gmin increment
Trying gmin =   6.7269E-08 Note: One successful gmin step
Trying gmin =   6.7254E-08 Warning: Further gmin increment
Trying gmin =   6.7265E-08 Note: One successful gmin step
Trying gmin =   6.7259E-08 Warning: Further gmin increment
Trying gmin =   6.7264E-08 Note: One successful gmin step
Trying gmin =   6.7262E-08 Note: One successful gmin step
Trying gmin =   6.7258E-08 Warning: Last gmin step failed
Warning: True gmin stepping failed
Note: Starting dynamic gmin stepping
Trying gmin =   1.0000E-03 Note: One successful gmin step
Trying gmin =   1.0000E-04 Note: One successful gmin step
Trying gmin =   1.0000E-05 Warning: Further gmin increment
Trying gmin =   5.6234E-05 Note: One successful gmin step
Trying gmin =   2.3714E-05 Note: One successful gmin step
Trying gmin =   6.4938E-06 Warning: Further gmin increment
Trying gmin =   1.7154E-05 Note: One successful gmin step
Trying gmin =   1.0554E-05 Warning: Further gmin increment
Trying gmin =   1.5193E-05 Note: One successful gmin step
Trying gmin =   1.2663E-05 Warning: Further gmin increment
Trying gmin =   1.4517E-05 Note: One successful gmin step
Trying gmin =   1.3558E-05 Note: One successful gmin step
Trying gmin =   1.2238E-05 Note: One successful gmin step
Trying gmin =   1.0495E-05 Note: One successful gmin step
Trying gmin =   8.3340E-06 Note: One successful gmin step
Trying gmin =   5.8977E-06 Note: One successful gmin step
Trying gmin =   3.5110E-06 Note: One successful gmin step
Trying gmin =   2.0901E-06 Note: One successful gmin step
Trying gmin =   9.6005E-07 Note: One successful gmin step
Trying gmin =   2.9886E-07 Warning: Further gmin increment
Trying gmin =   7.1711E-07 Note: One successful gmin step
Trying gmin =   4.6295E-07 Note: One successful gmin step
Trying gmin =   2.4013E-07 Warning: Further gmin increment
Trying gmin =   3.9288E-07 Note: One successful gmin step
Trying gmin =   3.0715E-07 Warning: Further gmin increment
Trying gmin =   3.6943E-07 Note: One successful gmin step
Trying gmin =   3.3685E-07 Note: One successful gmin step
Trying gmin =   2.9330E-07 Warning: Further gmin increment
Trying gmin =   3.2539E-07 Note: One successful gmin step
Trying gmin =   3.0893E-07 Warning: Further gmin increment
Trying gmin =   3.2120E-07 Note: One successful gmin step
Trying gmin =   3.1500E-07 Note: One successful gmin step
Trying gmin =   3.0593E-07 Warning: Further gmin increment
Trying gmin =   3.1271E-07 Note: One successful gmin step
Trying gmin =   3.0930E-07 Warning: Further gmin increment
Trying gmin =   3.1186E-07 Note: One successful gmin step
Trying gmin =   3.1058E-07 Warning: Further gmin increment
Trying gmin =   3.1154E-07 Note: One successful gmin step
Trying gmin =   3.1106E-07 Warning: Further gmin increment
Trying gmin =   3.1142E-07 Warning: Further gmin increment
Trying gmin =   3.1151E-07 Note: One successful gmin step
Trying gmin =   3.1146E-07 Note: One successful gmin step
Trying gmin =   3.1139E-07 Warning: Further gmin increment
Trying gmin =   3.1144E-07 Note: One successful gmin step
Trying gmin =   3.1142E-07 Note: One successful gmin step
Trying gmin =   3.1138E-07 Warning: Further gmin increment
Trying gmin =   3.1141E-07 Warning: Last gmin step failed
Warning: Dynamic gmin stepping failed
Note: Starting source stepping
Supplies reduced to   0.0000% Note: One successful source step
Supplies reduced to   0.1000% Note: One successful source step
Supplies reduced to   0.2000% Note: One successful source step
Supplies reduced to   0.3500% Note: One successful source step
Supplies reduced to   0.5750% Note: One successful source step
Supplies reduced to   0.9125% Note: One successful source step
Supplies reduced to   1.4188% Note: One successful source step
Supplies reduced to   2.1781% Note: One successful source step
Supplies reduced to   3.3172% Note: One successful source step
Supplies reduced to   5.0258% Note: One successful source step
Supplies reduced to   7.5887% Note: One successful source step
Supplies reduced to  11.4330% Note: One successful source step
Supplies reduced to  17.1995% Note: One successful source step
Supplies reduced to  25.8493% Supplies reduced to  17.1995% Note: One successful source step
Supplies reduced to  18.1995% Note: One successful source step
Supplies reduced to  19.6995% Note: One successful source step
Supplies reduced to  21.9495% Note: One successful source step
Supplies reduced to  25.3245% Note: One successful source step
Supplies reduced to  30.3870% Note: One successful source step
Supplies reduced to  32.9183% Note: One successful source step
Supplies reduced to  36.7151% Note: One successful source step
Supplies reduced to  42.4104% Note: One successful source step
Supplies reduced to  50.9534% Note: One successful source step
Supplies reduced to  63.7679% Note: One successful source step
Supplies reduced to  82.9896% Supplies reduced to  63.7679% Note: One successful source step
Supplies reduced to  64.7679% Note: One successful source step
Supplies reduced to  66.2679% Supplies reduced to  64.7679% Note: One successful source step
Supplies reduced to  64.9929% Supplies reduced to  64.7679% Note: One successful source step
Supplies reduced to  64.8016% Supplies reduced to  64.7679% Note: One successful source step
Supplies reduced to  64.7729% Note: One successful source step
Supplies reduced to  64.7805% Note: One successful source step
Supplies reduced to  64.7919% Note: One successful source step
Supplies reduced to  64.8090% Supplies reduced to  64.7919% Note: One successful source step
Supplies reduced to  64.7945% Note: One successful source step
Supplies reduced to  64.7983% Note: One successful source step
Supplies reduced to  64.8041% Supplies reduced to  64.7983% Note: One successful source step
Supplies reduced to  64.7992% Note: One successful source step
Supplies reduced to  64.8005% Note: One successful source step
Supplies reduced to  64.8024% Supplies reduced to  64.8005% Note: One successful source step
Supplies reduced to  64.8008% Note: One successful source step
Supplies reduced to  64.8012% Note: One successful source step
Supplies reduced to  64.8019% Supplies reduced to  64.8012% Note: One successful source step
Supplies reduced to  64.8013% Note: One successful source step
Supplies reduced to  64.8015% Supplies reduced to  64.8013% Note: One successful source step
Supplies reduced to  64.8013% Note: One successful source step
Supplies reduced to  64.8014% Note: One successful source step
Supplies reduced to  64.8014% Warning: source stepping failed
doAnalyses: Too many iterations without convergence

dc simulation(s) aborted
Error(parse.c--checkvalid): vldo_sup_2_8: zero length vector.
Error: RHS "abs((vldo_sup_2_8-vldo_sup_2)/0.8)" invalid
Error(parse.c--checkvalid): line_reg: zero length vector.
Error(parse.c--checkvalid): vin: zero length vector.
Error: RHS "vin-1.764" invalid
Error(parse.c--checkvalid): dropout: zero length vector.
Error: no such vector dropout
Note: No ".plot", ".print", or ".fourier" lines; no simulations run
pm                  =  5.940916e+01
Doing analysis at TEMP = 85.000000 and TNOM = 27.000000


No. of Data Rows : 91
psrr100             =  -5.115750e+01
psrr100k            =  -2.438518e+01
Doing analysis at TEMP = 85.000000 and TNOM = 27.000000


No. of Data Rows : 86
temp_coeff = 1.011152e+02
Doing analysis at TEMP = 85.000000 and TNOM = 27.000000


Error: measure  vldo_sup_2  (AT) : out of interval
 meas dc vldo_sup_2 find ldo_out at=2 failed!


Error: measure  vldo_sup_2_8  (AT) : out of interval
 meas dc vldo_sup_2_8 find ldo_out at=2.8 failed!


Error: measure  vin  (WHEN) : out of interval
 meas dc vin when v(ldo_out)=1.764 failed!

