 Reference value :  0.00000e+00
No compatibility mode selected!


Circuit: * ldo netlist 

Doing analysis at TEMP = 27.000000 and TNOM = 27.000000


No. of Data Rows : 1
bg_out = 1.195760e+00
inn = 1.227426e+00
inp = 1.227399e+00
l1#branch = 0.000000e+00
ldo_out = 1.799415e+00
m.xm1.msky130_fd_pr__nfet_g5v0d10v5#body = 1.709562e-11
m.xm1.msky130_fd_pr__nfet_g5v0d10v5#dbody = 3.549490e-11
m.xm1.msky130_fd_pr__nfet_g5v0d10v5#sbody = 1.579195e-11
m.xm2.msky130_fd_pr__pfet_g5v0d10v5#body = 2.300000e+00
m.xm2.msky130_fd_pr__pfet_g5v0d10v5#dbody = 2.300000e+00
m.xm2.msky130_fd_pr__pfet_g5v0d10v5#sbody = 2.300000e+00
m.xm3.msky130_fd_pr__pfet_g5v0d10v5#body = 2.300000e+00
m.xm3.msky130_fd_pr__pfet_g5v0d10v5#dbody = 2.300000e+00
m.xm3.msky130_fd_pr__pfet_g5v0d10v5#sbody = 2.300000e+00
m.xm4.msky130_fd_pr__pfet_g5v0d10v5#body = 2.300000e+00
m.xm4.msky130_fd_pr__pfet_g5v0d10v5#dbody = 2.300000e+00
m.xm4.msky130_fd_pr__pfet_g5v0d10v5#sbody = 2.300000e+00
m.xm5.msky130_fd_pr__pfet_g5v0d10v5#body = 2.300000e+00
m.xm5.msky130_fd_pr__pfet_g5v0d10v5#dbody = 2.300000e+00
m.xm5.msky130_fd_pr__pfet_g5v0d10v5#sbody = 2.300000e+00
m.xm6.msky130_fd_pr__nfet_g5v0d10v5#body = 1.181064e-11
m.xm6.msky130_fd_pr__nfet_g5v0d10v5#dbody = 2.952660e-11
m.xm6.msky130_fd_pr__nfet_g5v0d10v5#sbody = 5.905327e-12
m.xm7.msky130_fd_pr__pfet_g5v0d10v5#body = 2.300000e+00
m.xm7.msky130_fd_pr__pfet_g5v0d10v5#dbody = 2.300000e+00
m.xm7.msky130_fd_pr__pfet_g5v0d10v5#sbody = 2.300000e+00
m.xm8.msky130_fd_pr__pfet_g5v0d10v5#body = 2.300000e+00
m.xm8.msky130_fd_pr__pfet_g5v0d10v5#dbody = 2.300000e+00
m.xm8.msky130_fd_pr__pfet_g5v0d10v5#sbody = 2.300000e+00
m.xm9.msky130_fd_pr__nfet_g5v0d10v5#body = 1.775810e-11
m.xm9.msky130_fd_pr__nfet_g5v0d10v5#dbody = 3.808117e-11
m.xm9.msky130_fd_pr__nfet_g5v0d10v5#sbody = 1.519313e-11
m.xm10.msky130_fd_pr__nfet_g5v0d10v5#body = 1.752679e-11
m.xm10.msky130_fd_pr__nfet_g5v0d10v5#dbody = 3.750289e-11
m.xm10.msky130_fd_pr__nfet_g5v0d10v5#sbody = 1.507747e-11
m.xm11.msky130_fd_pr__pfet_g5v0d10v5#body = 2.300000e+00
m.xm11.msky130_fd_pr__pfet_g5v0d10v5#dbody = 2.300000e+00
m.xm11.msky130_fd_pr__pfet_g5v0d10v5#sbody = 2.300000e+00
m.xm12.msky130_fd_pr__pfet_g5v0d10v5#body = 2.300000e+00
m.xm12.msky130_fd_pr__pfet_g5v0d10v5#dbody = 2.300000e+00
m.xm12.msky130_fd_pr__pfet_g5v0d10v5#sbody = 2.300000e+00
m.xm13.msky130_fd_pr__nfet_g5v0d10v5#body = 3.155682e-12
m.xm13.msky130_fd_pr__nfet_g5v0d10v5#dbody = 7.889192e-12
m.xm13.msky130_fd_pr__nfet_g5v0d10v5#sbody = 1.577852e-12
m.xm14.msky130_fd_pr__pfet_g5v0d10v5#body = 2.300000e+00
m.xm14.msky130_fd_pr__pfet_g5v0d10v5#dbody = 2.300000e+00
m.xm14.msky130_fd_pr__pfet_g5v0d10v5#sbody = 2.300000e+00
m.xm15.msky130_fd_pr__nfet_g5v0d10v5#body = 1.680953e-16
m.xm15.msky130_fd_pr__nfet_g5v0d10v5#dbody = 4.202269e-16
m.xm15.msky130_fd_pr__nfet_g5v0d10v5#sbody = 8.405888e-17
m.xm16.msky130_fd_pr__nfet_g5v0d10v5#body = 4.410152e-11
m.xm16.msky130_fd_pr__nfet_g5v0d10v5#dbody = 7.955945e-11
m.xm16.msky130_fd_pr__nfet_g5v0d10v5#sbody = 5.274511e-11
m.xm17.msky130_fd_pr__pfet_g5v0d10v5#body = 2.300000e+00
m.xm17.msky130_fd_pr__pfet_g5v0d10v5#dbody = 2.300000e+00
m.xm17.msky130_fd_pr__pfet_g5v0d10v5#sbody = 2.300000e+00
m.xm18.msky130_fd_pr__nfet_g5v0d10v5#body = 1.885950e-11
m.xm18.msky130_fd_pr__nfet_g5v0d10v5#dbody = 4.712635e-11
m.xm18.msky130_fd_pr__nfet_g5v0d10v5#sbody = 9.429764e-12
m.xm19.msky130_fd_pr__nfet_g5v0d10v5#body = 1.713674e-11
m.xm19.msky130_fd_pr__nfet_g5v0d10v5#dbody = 3.559770e-11
m.xm19.msky130_fd_pr__nfet_g5v0d10v5#sbody = 1.581251e-11
m.xm20.msky130_fd_pr__nfet_g5v0d10v5#body = 1.208486e-11
m.xm20.msky130_fd_pr__nfet_g5v0d10v5#dbody = 3.021214e-11
m.xm20.msky130_fd_pr__nfet_g5v0d10v5#sbody = 6.042443e-12
m.xm22.msky130_fd_pr__nfet_g5v0d10v5#body = 3.624786e-12
m.xm22.msky130_fd_pr__nfet_g5v0d10v5#dbody = 9.061959e-12
m.xm22.msky130_fd_pr__nfet_g5v0d10v5#sbody = 1.812398e-12
m.xm24.msky130_fd_pr__pfet_g5v0d10v5#body = 2.300000e+00
m.xm24.msky130_fd_pr__pfet_g5v0d10v5#dbody = 2.300000e+00
m.xm24.msky130_fd_pr__pfet_g5v0d10v5#sbody = 2.300000e+00
m.xm26.msky130_fd_pr__pfet_g5v0d10v5#body = 2.300000e+00
m.xm26.msky130_fd_pr__pfet_g5v0d10v5#dbody = 2.300000e+00
m.xm26.msky130_fd_pr__pfet_g5v0d10v5#sbody = 2.300000e+00
mir = 1.077536e+00
net1 = 7.274583e-01
net2 = 1.293365e-05
net3 = 7.873236e-01
net4 = 2.894181e-01
net5 = 1.080826e+00
net6 = 9.442867e-01
net7 = 7.872956e-01
net8 = 1.149341e+00
net9 = 1.167846e+00
net10 = 2.523240e-01
net11 = 1.507734e+00
net12 = 1.507734e+00
net13 = 0.000000e+00
out = 1.507734e+00
pos = 1.195945e+00
q.xq2.qsky130_fd_pr__pnp_05v5_w0p68l0p68#collcx = 2.277696e-03
q.xq3.qsky130_fd_pr__pnp_05v5_w0p68l0p68#collcx = 2.870436e-04
q.xq4.qsky130_fd_pr__pnp_05v5_w0p68l0p68#collcx = 2.870436e-04
q.xq8.qsky130_fd_pr__pnp_05v5_w0p68l0p68#collcx = 2.870436e-04
q.xq10.qsky130_fd_pr__pnp_05v5_w0p68l0p68#collcx = 2.870436e-04
q.xq12.qsky130_fd_pr__pnp_05v5_w0p68l0p68#collcx = 2.870436e-04
q.xq14.qsky130_fd_pr__pnp_05v5_w0p68l0p68#collcx = 2.870436e-04
q.xq16.qsky130_fd_pr__pnp_05v5_w0p68l0p68#collcx = 2.870436e-04
q.xq18.qsky130_fd_pr__pnp_05v5_w0p68l0p68#collcx = 2.870436e-04
vb = 9.666582e-01
vdd = 2.300000e+00
vs#branch = -1.82163e-04
vt#branch = 0.000000e+00
xc1.a = 0.000000e+00
xc1.b1 = 0.000000e+00
xc3.a = 1.507734e+00
xc3.b1 = 1.507734e+00
xr1.xsky130_fd_pr__res_xhigh_po_0p69.ra = 7.901991e-01
xr2.xsky130_fd_pr__res_xhigh_po_0p69.ra = 7.902271e-01
xr3.xsky130_fd_pr__res_xhigh_po_0p69.ra = 1.966666e-03
xr4.xsky130_fd_pr__res_xhigh_po_0p69.ra = 7.284331e-01
xr5.xsky130_fd_pr__res_xhigh_po_0p69.ra = 1.966591e-03
xr6.xsky130_fd_pr__res_xhigh_po_0p69.ra = 3.086725e-03
xr7.xsky130_fd_pr__res_xhigh_po_0p69.ra = 1.507734e+00
xr8.xsky130_fd_pr__res_xhigh_po_0p69.ra = 1.201076e+00
xr9.xsky130_fd_pr__res_xhigh_po_0p69.ra = 5.380688e-03
Doing analysis at TEMP = 27.000000 and TNOM = 27.000000


No. of Data Rows : 91
Note: Starting true gmin stepping
Trying gmin =   1.0000E-03 Note: One successful gmin step
Trying gmin =   1.0000E-04 Note: One successful gmin step
Trying gmin =   1.0000E-05 Note: One successful gmin step
Trying gmin =   1.0000E-06 Note: One successful gmin step
Trying gmin =   1.0000E-07 Note: One successful gmin step
Trying gmin =   1.0000E-08 Warning: Further gmin increment
Trying gmin =   5.6234E-08 Warning: Further gmin increment
Trying gmin =   8.6596E-08 Note: One successful gmin step
Trying gmin =   6.9783E-08 Note: One successful gmin step
Trying gmin =   5.0481E-08 Warning: Further gmin increment
Trying gmin =   6.4357E-08 Note: One successful gmin step
Trying gmin =   5.6998E-08 Warning: Further gmin increment
Trying gmin =   6.2432E-08 Note: One successful gmin step
Trying gmin =   5.9653E-08 Warning: Further gmin increment
Trying gmin =   6.1726E-08 Note: One successful gmin step
Trying gmin =   6.0681E-08 Note: One successful gmin step
Trying gmin =   5.9146E-08 Warning: Further gmin increment
Trying gmin =   6.0293E-08 Warning: Further gmin increment
Trying gmin =   6.0584E-08 Note: One successful gmin step
Trying gmin =   6.0438E-08 Warning: Further gmin increment
Trying gmin =   6.0547E-08 Note: One successful gmin step
Trying gmin =   6.0493E-08 Warning: Further gmin increment
Trying gmin =   6.0534E-08 Note: One successful gmin step
Trying gmin =   6.0513E-08 Note: One successful gmin step
Trying gmin =   6.0483E-08 Warning: Further gmin increment
Trying gmin =   6.0506E-08 Note: One successful gmin step
Trying gmin =   6.0494E-08 Warning: Further gmin increment
Trying gmin =   6.0503E-08 Note: One successful gmin step
Trying gmin =   6.0498E-08 Note: One successful gmin step
Trying gmin =   6.0492E-08 Warning: Further gmin increment
Trying gmin =   6.0497E-08 Note: One successful gmin step
Trying gmin =   6.0494E-08 Warning: Last gmin step failed
Warning: True gmin stepping failed
Note: Starting dynamic gmin stepping
Trying gmin =   1.0000E-03 Note: One successful gmin step
Trying gmin =   1.0000E-04 Note: One successful gmin step
Trying gmin =   1.0000E-05 Warning: Further gmin increment
Trying gmin =   5.6234E-05 Note: One successful gmin step
Trying gmin =   2.3714E-05 Note: One successful gmin step
Trying gmin =   6.4938E-06 Warning: Further gmin increment
Trying gmin =   1.7154E-05 Note: One successful gmin step
Trying gmin =   1.0554E-05 Warning: Further gmin increment
Trying gmin =   1.5193E-05 Note: One successful gmin step
Trying gmin =   1.2663E-05 Warning: Further gmin increment
Trying gmin =   1.4517E-05 Note: One successful gmin step
Trying gmin =   1.3558E-05 Warning: Further gmin increment
Trying gmin =   1.4271E-05 Note: One successful gmin step
Trying gmin =   1.3910E-05 Note: One successful gmin step
Trying gmin =   1.3386E-05 Note: One successful gmin step
Trying gmin =   1.2636E-05 Note: One successful gmin step
Trying gmin =   1.1590E-05 Note: One successful gmin step
Trying gmin =   1.0180E-05 Note: One successful gmin step
Trying gmin =   8.3808E-06 Note: One successful gmin step
Trying gmin =   6.2601E-06 Note: One successful gmin step
Trying gmin =   4.0413E-06 Note: One successful gmin step
Trying gmin =   2.0962E-06 Note: One successful gmin step
Trying gmin =   7.8308E-07 Warning: Further gmin increment
Trying gmin =   1.6388E-06 Warning: Further gmin increment
Trying gmin =   1.9711E-06 Note: One successful gmin step
Trying gmin =   1.7973E-06 Warning: Further gmin increment
Trying gmin =   1.9261E-06 Note: One successful gmin step
Trying gmin =   1.8606E-06 Warning: Further gmin increment
Trying gmin =   1.9095E-06 Note: One successful gmin step
Trying gmin =   1.8849E-06 Note: One successful gmin step
Trying gmin =   1.8606E-06 Warning: Further gmin increment
Trying gmin =   1.8788E-06 Note: One successful gmin step
Trying gmin =   1.8697E-06 Note: One successful gmin step
Trying gmin =   1.8561E-06 Note: One successful gmin step
Trying gmin =   1.8359E-06 Note: One successful gmin step
Trying gmin =   1.8059E-06 Note: One successful gmin step
Trying gmin =   1.7620E-06 Note: One successful gmin step
Trying gmin =   1.6980E-06 Note: One successful gmin step
Trying gmin =   1.6064E-06 Note: One successful gmin step
Trying gmin =   1.4782E-06 Note: One successful gmin step
Trying gmin =   1.3048E-06 Note: One successful gmin step
Trying gmin =   1.0821E-06 Note: One successful gmin step
Trying gmin =   8.1728E-07 Note: One successful gmin step
Trying gmin =   5.3642E-07 Note: One successful gmin step
Trying gmin =   2.8523E-07 Note: One successful gmin step
Trying gmin =   1.1060E-07 Note: One successful gmin step
Trying gmin =   2.6704E-08 Note: One successful gmin step
Trying gmin =   3.1681E-09 Note: One successful gmin step
Trying gmin =   3.1681E-10 Note: One successful gmin step
Trying gmin =   3.1681E-11 Note: One successful gmin step
Trying gmin =   3.1681E-12 Note: One successful gmin step
Trying gmin =   1.0000E-12 Note: One successful gmin step
Note: Dynamic gmin stepping completed
 Reference value :  2.80000e+00Note: Starting true gmin stepping
Trying gmin =   1.0000E-03 Note: One successful gmin step
Trying gmin =   1.0000E-04 Note: One successful gmin step
Trying gmin =   1.0000E-05 Note: One successful gmin step
Trying gmin =   1.0000E-06 Note: One successful gmin step
Trying gmin =   1.0000E-07 Note: One successful gmin step
Trying gmin =   1.0000E-08 Warning: Further gmin increment
Trying gmin =   5.6234E-08 Note: One successful gmin step
Trying gmin =   2.3714E-08 Note: One successful gmin step
Trying gmin =   1.0000E-08 Note: One successful gmin step
Trying gmin =   2.7384E-09 Note: One successful gmin step
Trying gmin =   7.4989E-10 Note: One successful gmin step
Trying gmin =   1.0746E-10 Note: One successful gmin step
Trying gmin =   1.0746E-11 Note: One successful gmin step
Trying gmin =   1.0746E-12 Note: One successful gmin step
Trying gmin =   1.0000E-12 Note: One successful gmin step
Note: True gmin stepping completed
Note: Starting true gmin stepping
Trying gmin =   1.0000E-03 Note: One successful gmin step
Trying gmin =   1.0000E-04 Note: One successful gmin step
Trying gmin =   1.0000E-05 Note: One successful gmin step
Trying gmin =   1.0000E-06 Note: One successful gmin step
Trying gmin =   1.0000E-07 Note: One successful gmin step
Trying gmin =   1.0000E-08 Warning: Further gmin increment
Trying gmin =   5.6234E-08 Note: One successful gmin step
Trying gmin =   2.3714E-08 Note: One successful gmin step
Trying gmin =   1.0000E-08 Note: One successful gmin step
Trying gmin =   2.7384E-09 Warning: Further gmin increment
Trying gmin =   7.2339E-09 Note: One successful gmin step
Trying gmin =   4.4508E-09 Note: One successful gmin step
Trying gmin =   2.1480E-09 Note: One successful gmin step
Trying gmin =   7.2015E-10 Note: One successful gmin step
Trying gmin =   1.3980E-10 Note: One successful gmin step
Trying gmin =   1.3980E-11 Note: One successful gmin step
Trying gmin =   1.3980E-12 Note: One successful gmin step
Trying gmin =   1.0000E-12 Note: One successful gmin step
Note: True gmin stepping completed
 Reference value :  1.34000e+00Note: Starting true gmin stepping
Trying gmin =   1.0000E-03 Note: One successful gmin step
Trying gmin =   1.0000E-04 Note: One successful gmin step
Trying gmin =   1.0000E-05 Note: One successful gmin step
Trying gmin =   1.0000E-06 Note: One successful gmin step
Trying gmin =   1.0000E-07 Note: One successful gmin step
Trying gmin =   1.0000E-08 Note: One successful gmin step
Trying gmin =   1.0000E-09 Note: One successful gmin step
Trying gmin =   3.1623E-10 Note: One successful gmin step
Trying gmin =   5.6234E-11 Note: One successful gmin step
Trying gmin =   5.6234E-12 Note: One successful gmin step
Trying gmin =   1.0000E-12 Note: One successful gmin step
Note: True gmin stepping completed
Note: Starting true gmin stepping
Trying gmin =   1.0000E-03 Note: One successful gmin step
Trying gmin =   1.0000E-04 Note: One successful gmin step
Trying gmin =   1.0000E-05 Note: One successful gmin step
Trying gmin =   1.0000E-06 Note: One successful gmin step
Trying gmin =   1.0000E-07 Note: One successful gmin step
Trying gmin =   1.0000E-08 Note: One successful gmin step
Trying gmin =   1.0000E-09 Warning: Further gmin increment
Trying gmin =   5.6234E-09 Note: One successful gmin step
Trying gmin =   2.3714E-09 Note: One successful gmin step
Trying gmin =   6.4938E-10 Warning: Further gmin increment
Trying gmin =   1.7154E-09 Warning: Further gmin increment
Trying gmin =   2.1870E-09 Note: One successful gmin step
Trying gmin =   1.9369E-09 Note: One successful gmin step
Trying gmin =   1.6144E-09 Note: One successful gmin step
Trying gmin =   1.3456E-09 Note: One successful gmin step
Trying gmin =   1.0239E-09 Note: One successful gmin step
Trying gmin =   6.7963E-10 Note: One successful gmin step
Trying gmin =   3.6754E-10 Note: One successful gmin step
Trying gmin =   1.4617E-10 Note: One successful gmin step
Trying gmin =   3.6659E-11 Note: One successful gmin step
Trying gmin =   4.6043E-12 Note: One successful gmin step
Trying gmin =   1.0000E-12 Note: One successful gmin step
Note: True gmin stepping completed
 Reference value :  1.30000e+00Note: Starting true gmin stepping
Trying gmin =   1.0000E-03 Note: One successful gmin step
Trying gmin =   1.0000E-04 Note: One successful gmin step
Trying gmin =   1.0000E-05 Note: One successful gmin step
Trying gmin =   1.0000E-06 Note: One successful gmin step
Trying gmin =   1.0000E-07 Note: One successful gmin step
Trying gmin =   1.0000E-08 Note: One successful gmin step
Trying gmin =   1.0000E-09 Warning: Further gmin increment
Trying gmin =   5.6234E-09 Note: One successful gmin step
Trying gmin =   2.3714E-09 Note: One successful gmin step
Trying gmin =   6.4938E-10 Warning: Further gmin increment
Trying gmin =   1.7154E-09 Note: One successful gmin step
Trying gmin =   1.0554E-09 Note: One successful gmin step
Trying gmin =   5.0937E-10 Note: One successful gmin step
Trying gmin =   1.7077E-10 Note: One successful gmin step
Trying gmin =   3.3152E-11 Note: One successful gmin step
Trying gmin =   3.3152E-12 Note: One successful gmin step
Trying gmin =   1.0000E-12 Note: One successful gmin step
Note: True gmin stepping completed
pm                  =  5.489486e+01
Doing analysis at TEMP = 27.000000 and TNOM = 27.000000


No. of Data Rows : 91
psrr100             =  -7.831127e+01
psrr100k            =  -2.597897e+01
Doing analysis at TEMP = 27.000000 and TNOM = 27.000000


No. of Data Rows : 86
temp_coeff = 1.702807e+02
Doing analysis at TEMP = 27.000000 and TNOM = 27.000000


No. of Data Rows : 141
vldo_sup_2          =  1.799422e+00
vldo_sup_2_8        =  1.799379e+00
line_reg = 5.375000e-05
Note: No ".plot", ".print", or ".fourier" lines; no simulations run
vin                 =  1.764128e+00
dropout = 1.280000e-04
