 Reference value :  0.00000e+00
No compatibility mode selected!


Circuit: * ldo netlist 

Doing analysis at TEMP = 27.000000 and TNOM = 27.000000


No. of Data Rows : 1
bg_out = 1.098999e+00
inn = 1.144222e+00
inp = 1.144153e+00
l1#branch = 0.000000e+00
ldo_out = 1.806786e+00
m.xm1.msky130_fd_pr__nfet_g5v0d10v5#body = 1.374626e-11
m.xm1.msky130_fd_pr__nfet_g5v0d10v5#dbody = 2.869439e-11
m.xm1.msky130_fd_pr__nfet_g5v0d10v5#sbody = 1.254440e-11
m.xm2.msky130_fd_pr__pfet_g5v0d10v5#body = 2.100000e+00
m.xm2.msky130_fd_pr__pfet_g5v0d10v5#dbody = 2.100000e+00
m.xm2.msky130_fd_pr__pfet_g5v0d10v5#sbody = 2.100000e+00
m.xm3.msky130_fd_pr__pfet_g5v0d10v5#body = 2.100000e+00
m.xm3.msky130_fd_pr__pfet_g5v0d10v5#dbody = 2.100000e+00
m.xm3.msky130_fd_pr__pfet_g5v0d10v5#sbody = 2.100000e+00
m.xm4.msky130_fd_pr__pfet_g5v0d10v5#body = 2.100000e+00
m.xm4.msky130_fd_pr__pfet_g5v0d10v5#dbody = 2.100000e+00
m.xm4.msky130_fd_pr__pfet_g5v0d10v5#sbody = 2.100000e+00
m.xm5.msky130_fd_pr__pfet_g5v0d10v5#body = 2.100000e+00
m.xm5.msky130_fd_pr__pfet_g5v0d10v5#dbody = 2.100000e+00
m.xm5.msky130_fd_pr__pfet_g5v0d10v5#sbody = 2.100000e+00
m.xm6.msky130_fd_pr__nfet_g5v0d10v5#body = 1.184401e-11
m.xm6.msky130_fd_pr__nfet_g5v0d10v5#dbody = 2.961002e-11
m.xm6.msky130_fd_pr__nfet_g5v0d10v5#sbody = 5.922011e-12
m.xm7.msky130_fd_pr__pfet_g5v0d10v5#body = 2.100000e+00
m.xm7.msky130_fd_pr__pfet_g5v0d10v5#dbody = 2.100000e+00
m.xm7.msky130_fd_pr__pfet_g5v0d10v5#sbody = 2.100000e+00
m.xm8.msky130_fd_pr__pfet_g5v0d10v5#body = 2.100000e+00
m.xm8.msky130_fd_pr__pfet_g5v0d10v5#dbody = 2.100000e+00
m.xm8.msky130_fd_pr__pfet_g5v0d10v5#sbody = 2.100000e+00
m.xm9.msky130_fd_pr__nfet_g5v0d10v5#body = 1.441155e-11
m.xm9.msky130_fd_pr__nfet_g5v0d10v5#dbody = 3.148450e-11
m.xm9.msky130_fd_pr__nfet_g5v0d10v5#sbody = 1.175016e-11
m.xm10.msky130_fd_pr__nfet_g5v0d10v5#body = 1.429191e-11
m.xm10.msky130_fd_pr__nfet_g5v0d10v5#dbody = 3.118539e-11
m.xm10.msky130_fd_pr__nfet_g5v0d10v5#sbody = 1.169034e-11
m.xm11.msky130_fd_pr__pfet_g5v0d10v5#body = 2.100000e+00
m.xm11.msky130_fd_pr__pfet_g5v0d10v5#dbody = 2.100000e+00
m.xm11.msky130_fd_pr__pfet_g5v0d10v5#sbody = 2.100000e+00
m.xm12.msky130_fd_pr__pfet_g5v0d10v5#body = 2.100000e+00
m.xm12.msky130_fd_pr__pfet_g5v0d10v5#dbody = 2.100000e+00
m.xm12.msky130_fd_pr__pfet_g5v0d10v5#sbody = 2.100000e+00
m.xm13.msky130_fd_pr__nfet_g5v0d10v5#body = 2.270835e-12
m.xm13.msky130_fd_pr__nfet_g5v0d10v5#dbody = 5.677077e-12
m.xm13.msky130_fd_pr__nfet_g5v0d10v5#sbody = 1.135428e-12
m.xm14.msky130_fd_pr__pfet_g5v0d10v5#body = 2.100000e+00
m.xm14.msky130_fd_pr__pfet_g5v0d10v5#dbody = 2.100000e+00
m.xm14.msky130_fd_pr__pfet_g5v0d10v5#sbody = 2.100000e+00
m.xm15.msky130_fd_pr__nfet_g5v0d10v5#body = 7.447152e-17
m.xm15.msky130_fd_pr__nfet_g5v0d10v5#dbody = 1.861751e-16
m.xm15.msky130_fd_pr__nfet_g5v0d10v5#sbody = 3.723942e-17
m.xm16.msky130_fd_pr__nfet_g5v0d10v5#body = 4.056146e-11
m.xm16.msky130_fd_pr__nfet_g5v0d10v5#dbody = 7.278942e-11
m.xm16.msky130_fd_pr__nfet_g5v0d10v5#sbody = 4.889497e-11
m.xm17.msky130_fd_pr__pfet_g5v0d10v5#body = 2.100000e+00
m.xm17.msky130_fd_pr__pfet_g5v0d10v5#dbody = 2.100000e+00
m.xm17.msky130_fd_pr__pfet_g5v0d10v5#sbody = 2.100000e+00
m.xm18.msky130_fd_pr__nfet_g5v0d10v5#body = 6.062628e-12
m.xm18.msky130_fd_pr__nfet_g5v0d10v5#dbody = 1.515656e-11
m.xm18.msky130_fd_pr__nfet_g5v0d10v5#sbody = 3.031326e-12
m.xm19.msky130_fd_pr__nfet_g5v0d10v5#body = 1.383732e-11
m.xm19.msky130_fd_pr__nfet_g5v0d10v5#dbody = 2.892202e-11
m.xm19.msky130_fd_pr__nfet_g5v0d10v5#sbody = 1.258993e-11
m.xm20.msky130_fd_pr__nfet_g5v0d10v5#body = 1.211970e-11
m.xm20.msky130_fd_pr__nfet_g5v0d10v5#dbody = 3.029923e-11
m.xm20.msky130_fd_pr__nfet_g5v0d10v5#sbody = 6.059863e-12
m.xm22.msky130_fd_pr__nfet_g5v0d10v5#body = 2.838348e-12
m.xm22.msky130_fd_pr__nfet_g5v0d10v5#dbody = 7.095865e-12
m.xm22.msky130_fd_pr__nfet_g5v0d10v5#sbody = 1.419179e-12
m.xm24.msky130_fd_pr__pfet_g5v0d10v5#body = 2.100000e+00
m.xm24.msky130_fd_pr__pfet_g5v0d10v5#dbody = 2.100000e+00
m.xm24.msky130_fd_pr__pfet_g5v0d10v5#sbody = 2.100000e+00
m.xm26.msky130_fd_pr__pfet_g5v0d10v5#body = 2.100000e+00
m.xm26.msky130_fd_pr__pfet_g5v0d10v5#dbody = 2.100000e+00
m.xm26.msky130_fd_pr__pfet_g5v0d10v5#sbody = 2.100000e+00
mir = 8.725027e-01
net1 = 7.274357e-01
net2 = 5.729988e-06
net3 = 7.872941e-01
net4 = 2.265033e-01
net5 = 8.797868e-01
net6 = 9.469560e-01
net7 = 7.872237e-01
net8 = 9.613384e-01
net9 = 9.709099e-01
net10 = 1.815365e-01
net11 = 4.848796e-01
net12 = 4.848796e-01
net13 = 0.000000e+00
out = 4.848796e-01
pos = 1.099103e+00
q.xq2.qsky130_fd_pr__pnp_05v5_w0p68l0p68#collcx = 2.275571e-03
q.xq3.qsky130_fd_pr__pnp_05v5_w0p68l0p68#collcx = 2.868075e-04
q.xq4.qsky130_fd_pr__pnp_05v5_w0p68l0p68#collcx = 2.868075e-04
q.xq8.qsky130_fd_pr__pnp_05v5_w0p68l0p68#collcx = 2.868075e-04
q.xq10.qsky130_fd_pr__pnp_05v5_w0p68l0p68#collcx = 2.868075e-04
q.xq12.qsky130_fd_pr__pnp_05v5_w0p68l0p68#collcx = 2.868075e-04
q.xq14.qsky130_fd_pr__pnp_05v5_w0p68l0p68#collcx = 2.868075e-04
q.xq16.qsky130_fd_pr__pnp_05v5_w0p68l0p68#collcx = 2.868075e-04
q.xq18.qsky130_fd_pr__pnp_05v5_w0p68l0p68#collcx = 2.868075e-04
vb = 9.694452e-01
vdd = 2.100000e+00
vs#branch = -1.00508e-01
vt#branch = 0.000000e+00
xc1.a = 0.000000e+00
xc1.b1 = 0.000000e+00
xc3.a = 4.848796e-01
xc3.b1 = 4.848796e-01
xr1.xsky130_fd_pr__res_xhigh_po_0p69.ra = 7.902055e-01
xr2.xsky130_fd_pr__res_xhigh_po_0p69.ra = 7.902758e-01
xr3.xsky130_fd_pr__res_xhigh_po_0p69.ra = 2.064355e-03
xr4.xsky130_fd_pr__res_xhigh_po_0p69.ra = 7.284097e-01
xr5.xsky130_fd_pr__res_xhigh_po_0p69.ra = 2.064158e-03
xr6.xsky130_fd_pr__res_xhigh_po_0p69.ra = 3.165860e-03
xr7.xsky130_fd_pr__res_xhigh_po_0p69.ra = 4.848796e-01
xr8.xsky130_fd_pr__res_xhigh_po_0p69.ra = 1.103910e+00
xr9.xsky130_fd_pr__res_xhigh_po_0p69.ra = 4.963204e-03
Doing analysis at TEMP = 27.000000 and TNOM = 27.000000


No. of Data Rows : 91
Error: no such vector PM
Note: Starting true gmin stepping
Trying gmin =   1.0000E-03 Note: One successful gmin step
Trying gmin =   1.0000E-04 Note: One successful gmin step
Trying gmin =   1.0000E-05 Note: One successful gmin step
Trying gmin =   1.0000E-06 Note: One successful gmin step
Trying gmin =   1.0000E-07 Warning: Further gmin increment
Trying gmin =   5.6234E-07 Note: One successful gmin step
Trying gmin =   2.3714E-07 Note: One successful gmin step
Trying gmin =   6.4938E-08 Warning: Further gmin increment
Trying gmin =   1.7154E-07 Note: One successful gmin step
Trying gmin =   1.0554E-07 Note: One successful gmin step
Trying gmin =   5.0937E-08 Warning: Further gmin increment
Trying gmin =   8.7970E-08 Warning: Further gmin increment
Trying gmin =   1.0085E-07 Warning: Further gmin increment
Trying gmin =   1.0435E-07 Warning: Further gmin increment
Trying gmin =   1.0525E-07 Note: One successful gmin step
Trying gmin =   1.0480E-07 Note: One successful gmin step
Trying gmin =   1.0413E-07 Warning: Further gmin increment
Trying gmin =   1.0463E-07 Warning: Further gmin increment
Trying gmin =   1.0475E-07 Note: One successful gmin step
Trying gmin =   1.0469E-07 Warning: Further gmin increment
Trying gmin =   1.0474E-07 Note: One successful gmin step
Trying gmin =   1.0472E-07 Note: One successful gmin step
Trying gmin =   1.0468E-07 Warning: Further gmin increment
Trying gmin =   1.0471E-07 Note: One successful gmin step
Trying gmin =   1.0469E-07 Warning: Further gmin increment
Trying gmin =   1.0470E-07 Note: One successful gmin step
Trying gmin =   1.0470E-07 Note: One successful gmin step
Trying gmin =   1.0469E-07 Warning: Further gmin increment
Trying gmin =   1.0470E-07 Note: One successful gmin step
Trying gmin =   1.0469E-07 Warning: Last gmin step failed
Warning: True gmin stepping failed
Note: Starting dynamic gmin stepping
Trying gmin =   1.0000E-03 Note: One successful gmin step
Trying gmin =   1.0000E-04 Note: One successful gmin step
Trying gmin =   1.0000E-05 Note: One successful gmin step
Trying gmin =   1.0000E-06 Warning: Further gmin increment
Trying gmin =   5.6234E-06 Note: One successful gmin step
Trying gmin =   3.1623E-06 Note: One successful gmin step
Trying gmin =   1.3335E-06 Note: One successful gmin step
Trying gmin =   3.6517E-07 Warning: Further gmin increment
Trying gmin =   9.6466E-07 Warning: Further gmin increment
Trying gmin =   1.2298E-06 Note: One successful gmin step
Trying gmin =   1.0892E-06 Note: One successful gmin step
Trying gmin =   9.0784E-07 Note: One successful gmin step
Trying gmin =   6.9080E-07 Note: One successful gmin step
Trying gmin =   4.5854E-07 Note: One successful gmin step
Trying gmin =   2.4798E-07 Note: One successful gmin step
Trying gmin =   9.8618E-08 Note: One successful gmin step
Trying gmin =   2.4733E-08 Note: One successful gmin step
Trying gmin =   3.1064E-09 Note: One successful gmin step
Trying gmin =   3.1064E-10 Note: One successful gmin step
Trying gmin =   3.1064E-11 Note: One successful gmin step
Trying gmin =   3.1064E-12 Note: One successful gmin step
Trying gmin =   1.0000E-12 Note: One successful gmin step
Note: Dynamic gmin stepping completed
 Reference value :  2.80000e+00Note: Starting true gmin stepping
Trying gmin =   1.0000E-03 Note: One successful gmin step
Trying gmin =   1.0000E-04 Note: One successful gmin step
Trying gmin =   1.0000E-05 Note: One successful gmin step
Trying gmin =   1.0000E-06 Note: One successful gmin step
Trying gmin =   1.0000E-07 Note: One successful gmin step
Trying gmin =   1.0000E-08 Note: One successful gmin step
Trying gmin =   1.0000E-09 Note: One successful gmin step
Trying gmin =   1.0000E-10 Warning: Further gmin increment
Trying gmin =   5.6234E-10 Warning: Further gmin increment
Trying gmin =   8.6596E-10 Note: One successful gmin step
Trying gmin =   6.9783E-10 Note: One successful gmin step
Trying gmin =   5.0481E-10 Note: One successful gmin step
Trying gmin =   3.1059E-10 Note: One successful gmin step
Trying gmin =   1.4989E-10 Note: One successful gmin step
Trying gmin =   5.0254E-11 Note: One successful gmin step
Trying gmin =   9.7557E-12 Note: One successful gmin step
Trying gmin =   1.0000E-12 Note: One successful gmin step
Note: True gmin stepping completed
Note: Starting true gmin stepping
Trying gmin =   1.0000E-03 Note: One successful gmin step
Trying gmin =   1.0000E-04 Note: One successful gmin step
Trying gmin =   1.0000E-05 Note: One successful gmin step
Trying gmin =   1.0000E-06 Note: One successful gmin step
Trying gmin =   1.0000E-07 Note: One successful gmin step
Trying gmin =   1.0000E-08 Note: One successful gmin step
Trying gmin =   3.1623E-09 Note: One successful gmin step
Trying gmin =   5.6234E-10 Warning: Further gmin increment
Trying gmin =   2.0535E-09 Note: One successful gmin step
Trying gmin =   1.0746E-09 Note: One successful gmin step
Trying gmin =   5.6234E-10 Note: One successful gmin step
Trying gmin =   2.9427E-10 Note: One successful gmin step
Trying gmin =   1.1140E-10 Note: One successful gmin step
Trying gmin =   2.5946E-11 Note: One successful gmin step
Trying gmin =   2.9164E-12 Note: One successful gmin step
Trying gmin =   1.0000E-12 Note: One successful gmin step
Note: True gmin stepping completed
 Reference value :  1.24000e+00
Error: measure  pm  (AT) : out of interval
 meas ac pm find p when vdb(ldo_out)=0 failed!

Doing analysis at TEMP = 27.000000 and TNOM = 27.000000


No. of Data Rows : 91
psrr100             =  -6.289160e+01
psrr100k            =  -2.014409e+01
Doing analysis at TEMP = 27.000000 and TNOM = 27.000000


No. of Data Rows : 86
temp_coeff = 5.697145e+01
Doing analysis at TEMP = 27.000000 and TNOM = 27.000000


No. of Data Rows : 141
vldo_sup_2          =  1.806474e+00
vldo_sup_2_8        =  1.806789e+00
line_reg = 3.937500e-04
Note: No ".plot", ".print", or ".fourier" lines; no simulations run
vin                 =  1.932461e+00
dropout = 1.684610e-01
