Note: Starting true gmin stepping
Trying gmin =   1.0000E-03 Note: One successful gmin step
Trying gmin =   1.0000E-04 Note: One successful gmin step
Trying gmin =   1.0000E-05 Note: One successful gmin step
Trying gmin =   1.0000E-06 Note: One successful gmin step
Trying gmin =   1.0000E-07 Note: One successful gmin step
Trying gmin =   1.0000E-08 Warning: Further gmin increment
Trying gmin =   5.6234E-08 Warning: Further gmin increment
Trying gmin =   8.6596E-08 Note: One successful gmin step
Trying gmin =   6.9783E-08 Note: One successful gmin step
Trying gmin =   5.6234E-08 Note: One successful gmin step
Trying gmin =   4.0679E-08 Note: One successful gmin step
Trying gmin =   2.5029E-08 Warning: Further gmin increment
Trying gmin =   3.6028E-08 Warning: Further gmin increment
Trying gmin =   3.9463E-08 Note: One successful gmin step
Trying gmin =   3.7706E-08 Note: One successful gmin step
Trying gmin =   3.5217E-08 Note: One successful gmin step
Trying gmin =   3.4035E-08 Note: One successful gmin step
Trying gmin =   3.2335E-08 Note: One successful gmin step
Trying gmin =   2.9944E-08 Note: One successful gmin step
Trying gmin =   2.6684E-08 Note: One successful gmin step
Trying gmin =   2.2447E-08 Warning: Further gmin increment
Trying gmin =   2.5555E-08 Note: One successful gmin step
Trying gmin =   2.3951E-08 Warning: Further gmin increment
Trying gmin =   2.5144E-08 Note: One successful gmin step
Trying gmin =   2.4540E-08 Note: One successful gmin step
Trying gmin =   2.3661E-08 Warning: Further gmin increment
Trying gmin =   2.4317E-08 Warning: Further gmin increment
Trying gmin =   2.4484E-08 Warning: Further gmin increment
Trying gmin =   2.4526E-08 Note: One successful gmin step
Trying gmin =   2.4505E-08 Warning: Further gmin increment
Trying gmin =   2.4521E-08 Note: One successful gmin step
Trying gmin =   2.4513E-08 Warning: Further gmin increment
Trying gmin =   2.4519E-08 Warning: Further gmin increment
Trying gmin =   2.4520E-08 Note: One successful gmin step
Trying gmin =   2.4520E-08 Warning: Last gmin step failed
Note: True gmin stepping completed
 Reference value :  0.00000e+00
No compatibility mode selected!


Circuit: * ldo netlist 

Doing analysis at TEMP = 0.000000 and TNOM = 27.000000


No. of Data Rows : 1
bg_out = 1.194088e+00
inn = 1.263501e+00
inp = 1.263488e+00
l1#branch = 0.000000e+00
ldo_out = 1.796763e+00
m.xm1.msky130_fd_pr__nfet_g5v0d10v5#body = 1.925722e-11
m.xm1.msky130_fd_pr__nfet_g5v0d10v5#dbody = 4.078684e-11
m.xm1.msky130_fd_pr__nfet_g5v0d10v5#sbody = 1.698483e-11
m.xm2.msky130_fd_pr__pfet_g5v0d10v5#body = 2.500000e+00
m.xm2.msky130_fd_pr__pfet_g5v0d10v5#dbody = 2.500000e+00
m.xm2.msky130_fd_pr__pfet_g5v0d10v5#sbody = 2.500000e+00
m.xm3.msky130_fd_pr__pfet_g5v0d10v5#body = 2.500000e+00
m.xm3.msky130_fd_pr__pfet_g5v0d10v5#dbody = 2.500000e+00
m.xm3.msky130_fd_pr__pfet_g5v0d10v5#sbody = 2.500000e+00
m.xm4.msky130_fd_pr__pfet_g5v0d10v5#body = 2.500000e+00
m.xm4.msky130_fd_pr__pfet_g5v0d10v5#dbody = 2.500000e+00
m.xm4.msky130_fd_pr__pfet_g5v0d10v5#sbody = 2.500000e+00
m.xm5.msky130_fd_pr__pfet_g5v0d10v5#body = 2.500000e+00
m.xm5.msky130_fd_pr__pfet_g5v0d10v5#dbody = 2.500000e+00
m.xm5.msky130_fd_pr__pfet_g5v0d10v5#sbody = 2.500000e+00
m.xm6.msky130_fd_pr__nfet_g5v0d10v5#body = 1.205000e-11
m.xm6.msky130_fd_pr__nfet_g5v0d10v5#dbody = 3.012500e-11
m.xm6.msky130_fd_pr__nfet_g5v0d10v5#sbody = 6.025006e-12
m.xm7.msky130_fd_pr__pfet_g5v0d10v5#body = 2.500000e+00
m.xm7.msky130_fd_pr__pfet_g5v0d10v5#dbody = 2.500000e+00
m.xm7.msky130_fd_pr__pfet_g5v0d10v5#sbody = 2.500000e+00
m.xm8.msky130_fd_pr__pfet_g5v0d10v5#body = 2.500000e+00
m.xm8.msky130_fd_pr__pfet_g5v0d10v5#dbody = 2.500000e+00
m.xm8.msky130_fd_pr__pfet_g5v0d10v5#sbody = 2.500000e+00
m.xm9.msky130_fd_pr__nfet_g5v0d10v5#body = 1.952635e-11
m.xm9.msky130_fd_pr__nfet_g5v0d10v5#dbody = 4.304553e-11
m.xm9.msky130_fd_pr__nfet_g5v0d10v5#sbody = 1.553352e-11
m.xm10.msky130_fd_pr__nfet_g5v0d10v5#body = 1.929099e-11
m.xm10.msky130_fd_pr__nfet_g5v0d10v5#dbody = 4.245712e-11
m.xm10.msky130_fd_pr__nfet_g5v0d10v5#sbody = 1.541584e-11
m.xm11.msky130_fd_pr__pfet_g5v0d10v5#body = 2.500000e+00
m.xm11.msky130_fd_pr__pfet_g5v0d10v5#dbody = 2.500000e+00
m.xm11.msky130_fd_pr__pfet_g5v0d10v5#sbody = 2.500000e+00
m.xm12.msky130_fd_pr__pfet_g5v0d10v5#body = 2.500000e+00
m.xm12.msky130_fd_pr__pfet_g5v0d10v5#dbody = 2.500000e+00
m.xm12.msky130_fd_pr__pfet_g5v0d10v5#sbody = 2.500000e+00
m.xm13.msky130_fd_pr__nfet_g5v0d10v5#body = 2.885154e-12
m.xm13.msky130_fd_pr__nfet_g5v0d10v5#dbody = 7.212874e-12
m.xm13.msky130_fd_pr__nfet_g5v0d10v5#sbody = 1.442587e-12
m.xm14.msky130_fd_pr__pfet_g5v0d10v5#body = 2.500000e+00
m.xm14.msky130_fd_pr__pfet_g5v0d10v5#dbody = 2.500000e+00
m.xm14.msky130_fd_pr__pfet_g5v0d10v5#sbody = 2.500000e+00
m.xm15.msky130_fd_pr__nfet_g5v0d10v5#body = 5.042700e-16
m.xm15.msky130_fd_pr__nfet_g5v0d10v5#dbody = 1.260640e-15
m.xm15.msky130_fd_pr__nfet_g5v0d10v5#sbody = 2.521702e-16
m.xm16.msky130_fd_pr__nfet_g5v0d10v5#body = 4.704388e-11
m.xm16.msky130_fd_pr__nfet_g5v0d10v5#dbody = 8.602206e-11
m.xm16.msky130_fd_pr__nfet_g5v0d10v5#sbody = 5.510959e-11
m.xm17.msky130_fd_pr__pfet_g5v0d10v5#body = 2.500000e+00
m.xm17.msky130_fd_pr__pfet_g5v0d10v5#dbody = 2.500000e+00
m.xm17.msky130_fd_pr__pfet_g5v0d10v5#sbody = 2.500000e+00
m.xm18.msky130_fd_pr__nfet_g5v0d10v5#body = 2.083956e-11
m.xm18.msky130_fd_pr__nfet_g5v0d10v5#dbody = 5.174555e-11
m.xm18.msky130_fd_pr__nfet_g5v0d10v5#sbody = 1.041979e-11
m.xm19.msky130_fd_pr__nfet_g5v0d10v5#body = 1.928163e-11
m.xm19.msky130_fd_pr__nfet_g5v0d10v5#dbody = 4.084785e-11
m.xm19.msky130_fd_pr__nfet_g5v0d10v5#sbody = 1.699703e-11
m.xm20.msky130_fd_pr__nfet_g5v0d10v5#body = 1.233280e-11
m.xm20.msky130_fd_pr__nfet_g5v0d10v5#dbody = 3.083199e-11
m.xm20.msky130_fd_pr__nfet_g5v0d10v5#sbody = 6.166414e-12
m.xm22.msky130_fd_pr__nfet_g5v0d10v5#body = 3.678144e-12
m.xm22.msky130_fd_pr__nfet_g5v0d10v5#dbody = 9.195356e-12
m.xm22.msky130_fd_pr__nfet_g5v0d10v5#sbody = 1.839077e-12
m.xm24.msky130_fd_pr__pfet_g5v0d10v5#body = 2.500000e+00
m.xm24.msky130_fd_pr__pfet_g5v0d10v5#dbody = 2.500000e+00
m.xm24.msky130_fd_pr__pfet_g5v0d10v5#sbody = 2.500000e+00
m.xm26.msky130_fd_pr__pfet_g5v0d10v5#body = 2.500000e+00
m.xm26.msky130Note: Starting true gmin stepping
Trying gmin =   1.0000E-03 Note: One successful gmin step
Trying gmin =   1.0000E-04 Note: One successful gmin step
Trying gmin =   1.0000E-05 Note: One successful gmin step
Trying gmin =   1.0000E-06 Note: One successful gmin step
Trying gmin =   1.0000E-07 Note: One successful gmin step
Trying gmin =   1.0000E-08 Warning: Further gmin increment
Trying gmin =   5.6234E-08 Warning: Further gmin increment
Trying gmin =   8.6596E-08 Note: One successful gmin step
Trying gmin =   6.9783E-08 Note: One successful gmin step
Trying gmin =   5.6234E-08 Note: One successful gmin step
Trying gmin =   4.0679E-08 Note: One successful gmin step
Trying gmin =   2.5029E-08 Warning: Further gmin increment
Trying gmin =   3.6028E-08 Warning: Further gmin increment
Trying gmin =   3.9463E-08 Note: One successful gmin step
Trying gmin =   3.7706E-08 Note: One successful gmin step
Trying gmin =   3.5217E-08 Note: One successful gmin step
Trying gmin =   3.4035E-08 Note: One successful gmin step
Trying gmin =   3.2335E-08 Note: One successful gmin step
Trying gmin =   2.9944E-08 Note: One successful gmin step
Trying gmin =   2.6684E-08 Note: One successful gmin step
Trying gmin =   2.2447E-08 Warning: Further gmin increment
Trying gmin =   2.5555E-08 Note: One successful gmin step
Trying gmin =   2.3951E-08 Warning: Further gmin increment
Trying gmin =   2.5144E-08 Note: One successful gmin step
Trying gmin =   2.4540E-08 Note: One successful gmin step
Trying gmin =   2.3661E-08 Warning: Further gmin increment
Trying gmin =   2.4317E-08 Warning: Further gmin increment
Trying gmin =   2.4484E-08 Warning: Further gmin increment
Trying gmin =   2.4526E-08 Note: One successful gmin step
Trying gmin =   2.4505E-08 Warning: Further gmin increment
Trying gmin =   2.4521E-08 Note: One successful gmin step
Trying gmin =   2.4513E-08 Warning: Further gmin increment
Trying gmin =   2.4519E-08 Warning: Further gmin increment
Trying gmin =   2.4520E-08 Note: One successful gmin step
Trying gmin =   2.4520E-08 Warning: Last gmin step failed
Note: True gmin stepping completed
 Reference value :  1.00000e+00_fd_pr__pfet_g5v0d10v5#dbody = 2.500000e+00
m.xm26.msky130_fd_pr__pfet_g5v0d10v5#sbody = 2.500000e+00
mir = 1.246324e+00
net1 = 7.710700e-01
net2 = 4.031768e-05
net3 = 8.248305e-01
net4 = 2.942439e-01
net5 = 1.248277e+00
net6 = 9.639925e-01
net7 = 8.248164e-01
net8 = 1.312462e+00
net9 = 1.331291e+00
net10 = 2.308105e-01
net11 = 1.653029e+00
net12 = 1.653029e+00
net13 = 0.000000e+00
out = 1.653029e+00
pos = 1.194247e+00
q.xq2.qsky130_fd_pr__pnp_05v5_w0p68l0p68#collcx = 1.934840e-03
q.xq3.qsky130_fd_pr__pnp_05v5_w0p68l0p68#collcx = 2.435975e-04
q.xq4.qsky130_fd_pr__pnp_05v5_w0p68l0p68#collcx = 2.435975e-04
q.xq8.qsky130_fd_pr__pnp_05v5_w0p68l0p68#collcx = 2.435975e-04
q.xq10.qsky130_fd_pr__pnp_05v5_w0p68l0p68#collcx = 2.435975e-04
q.xq12.qsky130_fd_pr__pnp_05v5_w0p68l0p68#collcx = 2.435975e-04
q.xq14.qsky130_fd_pr__pnp_05v5_w0p68l0p68#collcx = 2.435975e-04
q.xq16.qsky130_fd_pr__pnp_05v5_w0p68l0p68#collcx = 2.435975e-04
q.xq18.qsky130_fd_pr__pnp_05v5_w0p68l0p68#collcx = 2.435975e-04
vb = 9.866224e-01
vdd = 2.500000e+00
vs#branch = -1.76812e-04
vt#branch = 0.000000e+00
xc1.a = 0.000000e+00
xc1.b1 = 0.000000e+00
xc3.a = 1.653029e+00
xc3.b1 = 1.653029e+00
xr1.xsky130_fd_pr__res_xhigh_po_0p69.ra = 8.275952e-01
xr2.xsky130_fd_pr__res_xhigh_po_0p69.ra = 8.276092e-01
xr3.xsky130_fd_pr__res_xhigh_po_0p69.ra = 1.984370e-03
xr4.xsky130_fd_pr__res_xhigh_po_0p69.ra = 7.719111e-01
xr5.xsky130_fd_pr__res_xhigh_po_0p69.ra = 1.984334e-03
xr6.xsky130_fd_pr__res_xhigh_po_0p69.ra = 2.959070e-03
xr7.xsky130_fd_pr__res_xhigh_po_0p69.ra = 1.653029e+00
xr8.xsky130_fd_pr__res_xhigh_po_0p69.ra = 1.199166e+00
xr9.xsky130_fd_pr__res_xhigh_po_0p69.ra = 5.158442e-03
Doing analysis at TEMP = 0.000000 and TNOM = 27.000000


No. of Data Rows : 91
Note: Starting true gmin stepping
Trying gmin =   1.0000E-03 Note: One successful gmin step
Trying gmin =   1.0000E-04 Note: One successful gmin step
Trying gmin =   1.0000E-05 Note: One successful gmin step
Trying gmin =   1.0000E-06 Note: One successful gmin step
Trying gmin =   1.0000E-07 Note: One successful gmin step
Trying gmin =   1.0000E-08 Warning: Further gmin increment
Trying gmin =   5.6234E-08 Warning: Further gmin increment
Trying gmin =   8.6596E-08 Note: One successful gmin step
Trying gmin =   6.9783E-08 Note: One successful gmin step
Trying gmin =   5.6234E-08 Note: One successful gmin step
Trying gmin =   4.0679E-08 Note: One successful gmin step
Trying gmin =   2.5029E-08 Warning: Further gmin increment
Trying gmin =   3.6028E-08 Warning: Further gmin increment
Trying gmin =   3.9463E-08 Note: One successful gmin step
Trying gmin =   3.7706E-08 Note: One successful gmin step
Trying gmin =   3.5217E-08 Note: One successful gmin step
Trying gmin =   3.4035E-08 Note: One successful gmin step
Trying gmin =   3.2335E-08 Note: One successful gmin step
Trying gmin =   2.9944E-08 Note: One successful gmin step
Trying gmin =   2.6684E-08 Note: One successful gmin step
Trying gmin =   2.2447E-08 Warning: Further gmin increment
Trying gmin =   2.5555E-08 Note: One successful gmin step
Trying gmin =   2.3951E-08 Warning: Further gmin increment
Trying gmin =   2.5144E-08 Note: One successful gmin step
Trying gmin =   2.4540E-08 Note: One successful gmin step
Trying gmin =   2.3661E-08 Warning: Further gmin increment
Trying gmin =   2.4317E-08 Warning: Further gmin increment
Trying gmin =   2.4484E-08 Warning: Further gmin increment
Trying gmin =   2.4526E-08 Note: One successful gmin step
Trying gmin =   2.4505E-08 Warning: Further gmin increment
Trying gmin =   2.4521E-08 Note: One successful gmin step
Trying gmin =   2.4513E-08 Warning: Further gmin increment
Trying gmin =   2.4519E-08 Warning: Further gmin increment
Trying gmin =   2.4520E-08 Note: One successful gmin step
Trying gmin =   2.4520E-08 Warning: Last gmin step failed
Note: True gmin stepping completed
 Reference value :  1.00000e+00Note: Starting true gmin stepping
Trying gmin =   1.0000E-03 Note: One successful gmin step
Trying gmin =   1.0000E-04 Note: One successful gmin step
Trying gmin =   1.0000E-05 Note: One successful gmin step
Trying gmin =   1.0000E-06 Note: One successful gmin step
Trying gmin =   1.0000E-07 Note: One successful gmin step
Trying gmin =   1.0000E-08 Warning: Further gmin increment
Trying gmin =   5.6234E-08 Note: One successful gmin step
Trying gmin =   2.3714E-08 Warning: Further gmin increment
Trying gmin =   4.5316E-08 Warning: Further gmin increment
Trying gmin =   5.3280E-08 Warning: Further gmin increment
Trying gmin =   5.5481E-08 Note: One successful gmin step
Trying gmin =   5.4369E-08 Note: One successful gmin step
Trying gmin =   5.2743E-08 Warning: Further gmin increment
Trying gmin =   5.3958E-08 Note: One successful gmin step
Trying gmin =   5.3347E-08 Note: One successful gmin step
Trying gmin =   5.3044E-08 Note: One successful gmin step
Trying gmin =   5.2593E-08 Note: One successful gmin step
Trying gmin =   5.1924E-08 Note: One successful gmin step
Trying gmin =   5.0936E-08 Note: One successful gmin step
Trying gmin =   4.9490E-08 Note: One successful gmin step
Trying gmin =   4.7396E-08 Note: One successful gmin step
Trying gmin =   4.4421E-08 Warning: Further gmin increment
Trying gmin =   4.6634E-08 Note: One successful gmin step
Trying gmin =   4.5514E-08 Note: One successful gmin step
Trying gmin =   4.3884E-08 Warning: Further gmin increment
Trying gmin =   4.5101E-08 Note: One successful gmin step
Trying gmin =   4.4488E-08 Warning: Further gmin increment
Trying gmin =   4.4947E-08 Warning: Further gmin increment
Trying gmin =   4.5062E-08 Note: One successful gmin step
Trying gmin =   4.5005E-08 Warning: Further gmin increment
Trying gmin =   4.5048E-08 Note: One successful gmin step
Trying gmin =   4.5026E-08 Note: One successful gmin step
Trying gmin =   4.4994E-08 Warning: Further gmin increment
Trying gmin =   4.5018E-08 Warning: Further gmin increment
Trying gmin =   4.5024E-08 Note: One successful gmin step
Trying gmin =   4.5021E-08 Note: One successful gmin step
Trying gmin =   4.5017E-08 Warning: Further gmin increment
Trying gmin =   4.5020E-08 Note: One successful gmin step
Trying gmin =   4.5018E-08 Note: One successful gmin step
Trying gmin =   4.5016E-08 Warning: Further gmin increment
Trying gmin =   4.5018E-08 Warning: Last gmin step failed
Warning: True gmin stepping failed
Note: Starting dynamic gmin stepping
Trying gmin =   1.0000E-03 Note: One successful gmin step
Trying gmin =   1.0000E-04 Note: One successful gmin step
Trying gmin =   1.0000E-05 Warning: Further gmin increment
Trying gmin =   5.6234E-05 Note: One successful gmin step
Trying gmin =   2.3714E-05 Note: One successful gmin step
Trying gmin =   6.4938E-06 Warning: Further gmin increment
Trying gmin =   1.7154E-05 Note: One successful gmin step
Trying gmin =   1.0554E-05 Warning: Further gmin increment
Trying gmin =   1.5193E-05 Note: One successful gmin step
Trying gmin =   1.2663E-05 Warning: Further gmin increment
Trying gmin =   1.4517E-05 Note: One successful gmin step
Trying gmin =   1.3558E-05 Note: One successful gmin step
Trying gmin =   1.2238E-05 Warning: Further gmin increment
Trying gmin =   1.3215E-05 Note: One successful gmin step
Trying gmin =   1.2717E-05 Note: One successful gmin step
Trying gmin =   1.2005E-05 Note: One successful gmin step
Trying gmin =   1.1011E-05 Note: One successful gmin step
Trying gmin =   9.6718E-06 Note: One successful gmin step
Trying gmin =   7.9623E-06 Note: One successful gmin step
Trying gmin =   5.9475E-06 Note: One successful gmin step
Trying gmin =   3.8395E-06 Warning: Further gmin increment
Trying gmin =   5.3311E-06 Note: One successful gmin step
Trying gmin =   4.5243E-06 Note: One successful gmin step
Trying gmin =   3.5370E-06 Note: One successful gmin step
Trying gmin =   2.4450E-06 Note: One successful gmin step
Trying gmin =   1.4052E-06 Note: One successful gmin step
Trying gmin =   6.1224E-07 Note: One successful gmin step
Trying gmin =   1.7608E-07 Warning: Further gmin increment
Trying gmin =   4.4835E-07 Note: One successful gmin step
Trying gmin =   2.8097E-07 Note: One successful gmin step
Trying gmin =   1.3939E-07 Warning: Further gmin increment
Trying gmin =   2.3580E-07 Warning: Further gmin increment
Trying gmin =   2.6893E-07 Note: One successful gmin step
Trying gmin =   2.5182E-07 Note: One successful gmin step
Trying gmin =   2.2818E-07 Warning: Further gmin increment
Trying gmin =   2.4569E-07 Warning: Further gmin increment
Trying gmin =   2.5027E-07 Note: One successful gmin step
Trying gmin =   2.4797E-07 Note: One successful gmin step
Trying gmin =   2.4456E-07 Warning: Further gmin increment
Trying gmin =   2.4711E-07 Warning: Further gmin increment
Trying gmin =   2.4776E-07 Note: One successful gmin step
Trying gmin =   2.4744E-07 Warning: Further gmin increment
Trying gmin =   2.4768E-07 Note: One successful gmin step
Trying gmin =   2.4756E-07 Note: One successful gmin step
Trying gmin =   2.4737E-07 Warning: Further gmin increment
Trying gmin =   2.4751E-07 Warning: Further gmin increment
Trying gmin =   2.4754E-07 Note: One successful gmin step
Trying gmin =   2.4753E-07 Note: One successful gmin step
Trying gmin =   2.4750E-07 Warning: Further gmin increment
Trying gmin =   2.4752E-07 Note: One successful gmin step
Trying gmin =   2.4751E-07 Warning: Last gmin step failed
Warning: Dynamic gmin stepping failed
Note: Starting source stepping
Supplies reduced to   0.0000% Note: One successful source step
Supplies reduced to   0.1000% Note: One successful source step
Supplies reduced to   0.2000% Note: One successful source step
Supplies reduced to   0.3500% Note: One successful source step
Supplies reduced to   0.5750% Note: One successful source step
Supplies reduced to   0.9125% Note: One successful source step
Supplies reduced to   1.4188% Note: One successful source step
Supplies reduced to   2.1781% Note: One successful source step
Supplies reduced to   3.3172% Note: One successful source step
Supplies reduced to   5.0258% Note: One successful source step
Supplies reduced to   7.5887% Note: One successful source step
Supplies reduced to  11.4330% Note: One successful source step
Supplies reduced to  17.1995% Note: One successful source step
Supplies reduced to  25.8493% Note: One successful source step
Supplies reduced to  38.8239% Supplies reduced to  25.8493% Note: One successful source step
Supplies reduced to  26.8493% Note: One successful source step
Supplies reduced to  28.3493% Note: One successful source step
Supplies reduced to  29.8493% Note: One successful source step
Supplies reduced to  32.0993% Note: One successful source step
Supplies reduced to  35.4743% Note: One successful source step
Supplies reduced to  40.5368% Note: One successful source step
Supplies reduced to  48.1305% Supplies reduced to  40.5368% Note: One successful source step
Supplies reduced to  41.5368% Note: One successful source step
Supplies reduced to  43.0368% Note: One successful source step
Supplies reduced to  45.2868% Note: One successful source step
Supplies reduced to  48.6618% Note: One successful source step
Supplies reduced to  53.7243% Note: One successful source step
Supplies reduced to  61.3180% Note: One successful source step
Supplies reduced to  72.7086% Note: One successful source step
Supplies reduced to  89.7946% Note: One successful source step
Supplies reduced to 100.0000% Note: One successful source step
Note: Source stepping completed
 Reference value :  2.80000e+00Note: Starting true gmin stepping
Trying gmin =   1.0000E-03 Note: One successful gmin step
Trying gmin =   1.0000E-04 Note: One successful gmin step
Trying gmin =   1.0000E-05 Note: One successful gmin step
Trying gmin =   1.0000E-06 Note: One successful gmin step
Trying gmin =   1.0000E-07 Note: One successful gmin step
Trying gmin =   1.0000E-08 Note: One successful gmin step
Trying gmin =   1.0000E-09 Note: One successful gmin step
Trying gmin =   1.0000E-10 Note: One successful gmin step
Trying gmin =   1.0000E-11 Note: One successful gmin step
Trying gmin =   1.0000E-12 Note: One successful gmin step
Trying gmin =   1.0000E-12 Note: One successful gmin step
Note: True gmin stepping completed
Note: Starting true gmin stepping
Trying gmin =   1.0000E-03 Note: One successful gmin step
Trying gmin =   1.0000E-04 Note: One successful gmin step
Trying gmin =   1.0000E-05 Note: One successful gmin step
Trying gmin =   1.0000E-06 Note: One successful gmin step
Trying gmin =   1.0000E-07 Note: One successful gmin step
Trying gmin =   1.0000E-08 Note: One successful gmin step
Trying gmin =   3.1623E-09 Note: One successful gmin step
Trying gmin =   5.6234E-10 Warning: Further gmin increment
Trying gmin =   2.0535E-09 Note: One successful gmin step
Trying gmin =   1.0746E-09 Note: One successful gmin step
Trying gmin =   4.0679E-10 Note: One successful gmin step
Trying gmin =   9.4746E-11 Warning: Further gmin increment
Trying gmin =   2.8260E-10 Warning: Further gmin increment
Trying gmin =   3.7138E-10 Note: One successful gmin step
Trying gmin =   3.2396E-10 Note: One successful gmin step
Trying gmin =   2.6394E-10 Warning: Further gmin increment
Trying gmin =   3.0779E-10 Note: One successful gmin step
Trying gmin =   2.8502E-10 Warning: Further gmin increment
Trying gmin =   3.0193E-10 Note: One successful gmin step
Trying gmin =   2.9336E-10 Note: One successful gmin step
Trying gmin =   2.8095E-10 Warning: Further gmin increment
Trying gmin =   2.9020E-10 Note: One successful gmin step
Trying gmin =   2.8554E-10 Note: One successful gmin step
Trying gmin =   2.7868E-10 Note: One successful gmin step
Trying gmin =   2.7198E-10 Note: One successful gmin step
Trying gmin =   2.6224E-10 Note: One successful gmin step
Trying gmin =   2.4828E-10 Note: One successful gmin step
Trying gmin =   2.2872E-10 Note: One successful gmin step
Trying gmin =   2.0224E-10 Note: One successful gmin step
Trying gmin =   1.6814E-10 Note: One successful gmin step
Trying gmin =   1.2747E-10 Note: One successful gmin step
Trying gmin =   8.4140E-11 Note: One successful gmin step
Trying gmin =   4.5122E-11 Note: One successful gmin step
Trying gmin =   1.7720E-11 Note: One successful gmin step
Trying gmin =   4.3612E-12 Note: One successful gmin step
Trying gmin =   1.0000E-12 Note: One successful gmin step
Note: True gmin stepping completed
 Reference value :  1.30000e+00Note: Starting true gmin stepping
Trying gmin =   1.0000E-03 Note: One successful gmin step
Trying gmin =   1.0000E-04 Note: One successful gmin step
Trying gmin =   1.0000E-05 Note: One successful gmin step
Trying gmin =   1.0000E-06 Note: One successful gmin step
Trying gmin =   1.0000E-07 Note: One successful gmin step
Trying gmin =   1.0000E-08 Note: One successful gmin step
Trying gmin =   1.0000E-09 Note: One successful gmin step
Trying gmin =   1.0000E-10 Warning: Further gmin increment
Trying gmin =   5.6234E-10 Note: One successful gmin step
Trying gmin =   2.3714E-10 Note: One successful gmin step
Trying gmin =   6.4938E-11 Warning: Further gmin increment
Trying gmin =   1.7154E-10 Warning: Further gmin increment
Trying gmin =   2.1870E-10 Note: One successful gmin step
Trying gmin =   1.9369E-10 Warning: Further gmin increment
Trying gmin =   2.1216E-10 Note: One successful gmin step
Trying gmin =   2.0271E-10 Note: One successful gmin step
Trying gmin =   1.8933E-10 Note: One successful gmin step
Trying gmin =   1.7089E-10 Note: One successful gmin step
Trying gmin =   1.4655E-10 Note: One successful gmin step
Trying gmin =   1.1638E-10 Note: One successful gmin step
Trying gmin =   8.2357E-11 Note: One successful gmin step
Trying gmin =   4.9029E-11 Note: One successful gmin step
Trying gmin =   2.2520E-11 Note: One successful gmin step
Trying gmin =   7.0105E-12 Note: One successful gmin step
Trying gmin =   1.2176E-12 Note: One successful gmin step
Trying gmin =   1.0000E-12 Note: One successful gmin step
Note: True gmin stepping completed
 Reference value :  5.60000e-01pm                  =  4.961755e+01
Doing analysis at TEMP = 0.000000 and TNOM = 27.000000


No. of Data Rows : 91
psrr100             =  -5.974199e+01
psrr100k            =  -2.659057e+01
Doing analysis at TEMP = 0.000000 and TNOM = 27.000000


No. of Data Rows : 86
temp_coeff = 1.789250e+02
Doing analysis at TEMP = 0.000000 and TNOM = 27.000000


No. of Data Rows : 141
vldo_sup_2          =  1.797552e+00
vldo_sup_2_8        =  1.796508e+00
line_reg = 1.305000e-03
Note: No ".plot", ".print", or ".fourier" lines; no simulations run
vin                 =  1.764121e+00
dropout = 1.210000e-04
