 Reference value :  0.00000e+00
No compatibility mode selected!


Circuit: * ldo netlist 

Doing analysis at TEMP = 27.000000 and TNOM = 27.000000


No. of Data Rows : 1
bg_out = 1.192592e+00
inn = 1.222483e+00
inp = 1.222459e+00
l1#branch = 0.000000e+00
ldo_out = 1.793307e+00
m.xm1.msky130_fd_pr__nfet_g5v0d10v5#body = 1.723506e-11
m.xm1.msky130_fd_pr__nfet_g5v0d10v5#dbody = 3.584603e-11
m.xm1.msky130_fd_pr__nfet_g5v0d10v5#sbody = 1.585914e-11
m.xm2.msky130_fd_pr__pfet_g5v0d10v5#body = 2.300000e+00
m.xm2.msky130_fd_pr__pfet_g5v0d10v5#dbody = 2.300000e+00
m.xm2.msky130_fd_pr__pfet_g5v0d10v5#sbody = 2.300000e+00
m.xm3.msky130_fd_pr__pfet_g5v0d10v5#body = 2.300000e+00
m.xm3.msky130_fd_pr__pfet_g5v0d10v5#dbody = 2.300000e+00
m.xm3.msky130_fd_pr__pfet_g5v0d10v5#sbody = 2.300000e+00
m.xm4.msky130_fd_pr__pfet_g5v0d10v5#body = 2.300000e+00
m.xm4.msky130_fd_pr__pfet_g5v0d10v5#dbody = 2.300000e+00
m.xm4.msky130_fd_pr__pfet_g5v0d10v5#sbody = 2.300000e+00
m.xm5.msky130_fd_pr__pfet_g5v0d10v5#body = 2.300000e+00
m.xm5.msky130_fd_pr__pfet_g5v0d10v5#dbody = 2.300000e+00
m.xm5.msky130_fd_pr__pfet_g5v0d10v5#sbody = 2.300000e+00
m.xm6.msky130_fd_pr__nfet_g5v0d10v5#body = 1.171277e-11
m.xm6.msky130_fd_pr__nfet_g5v0d10v5#dbody = 2.928192e-11
m.xm6.msky130_fd_pr__nfet_g5v0d10v5#sbody = 5.856390e-12
m.xm7.msky130_fd_pr__pfet_g5v0d10v5#body = 2.300000e+00
m.xm7.msky130_fd_pr__pfet_g5v0d10v5#dbody = 2.300000e+00
m.xm7.msky130_fd_pr__pfet_g5v0d10v5#sbody = 2.300000e+00
m.xm8.msky130_fd_pr__pfet_g5v0d10v5#body = 2.300000e+00
m.xm8.msky130_fd_pr__pfet_g5v0d10v5#dbody = 2.300000e+00
m.xm8.msky130_fd_pr__pfet_g5v0d10v5#sbody = 2.300000e+00
m.xm9.msky130_fd_pr__nfet_g5v0d10v5#body = 1.786858e-11
m.xm9.msky130_fd_pr__nfet_g5v0d10v5#dbody = 3.832458e-11
m.xm9.msky130_fd_pr__nfet_g5v0d10v5#sbody = 1.528117e-11
m.xm10.msky130_fd_pr__nfet_g5v0d10v5#body = 1.769754e-11
m.xm10.msky130_fd_pr__nfet_g5v0d10v5#dbody = 3.789698e-11
m.xm10.msky130_fd_pr__nfet_g5v0d10v5#sbody = 1.519565e-11
m.xm11.msky130_fd_pr__pfet_g5v0d10v5#body = 2.300000e+00
m.xm11.msky130_fd_pr__pfet_g5v0d10v5#dbody = 2.300000e+00
m.xm11.msky130_fd_pr__pfet_g5v0d10v5#sbody = 2.300000e+00
m.xm12.msky130_fd_pr__pfet_g5v0d10v5#body = 2.300000e+00
m.xm12.msky130_fd_pr__pfet_g5v0d10v5#dbody = 2.300000e+00
m.xm12.msky130_fd_pr__pfet_g5v0d10v5#sbody = 2.300000e+00
m.xm13.msky130_fd_pr__nfet_g5v0d10v5#body = 3.172082e-12
m.xm13.msky130_fd_pr__nfet_g5v0d10v5#dbody = 7.930194e-12
m.xm13.msky130_fd_pr__nfet_g5v0d10v5#sbody = 1.586051e-12
m.xm14.msky130_fd_pr__pfet_g5v0d10v5#body = 2.300000e+00
m.xm14.msky130_fd_pr__pfet_g5v0d10v5#dbody = 2.300000e+00
m.xm14.msky130_fd_pr__pfet_g5v0d10v5#sbody = 2.300000e+00
m.xm15.msky130_fd_pr__nfet_g5v0d10v5#body = 1.743821e-16
m.xm15.msky130_fd_pr__nfet_g5v0d10v5#dbody = 4.359436e-16
m.xm15.msky130_fd_pr__nfet_g5v0d10v5#sbody = 8.720261e-17
m.xm16.msky130_fd_pr__nfet_g5v0d10v5#body = 4.403973e-11
m.xm16.msky130_fd_pr__nfet_g5v0d10v5#dbody = 7.952856e-11
m.xm16.msky130_fd_pr__nfet_g5v0d10v5#sbody = 5.259065e-11
m.xm17.msky130_fd_pr__pfet_g5v0d10v5#body = 2.300000e+00
m.xm17.msky130_fd_pr__pfet_g5v0d10v5#dbody = 2.300000e+00
m.xm17.msky130_fd_pr__pfet_g5v0d10v5#sbody = 2.300000e+00
m.xm18.msky130_fd_pr__nfet_g5v0d10v5#body = 1.515594e-11
m.xm18.msky130_fd_pr__nfet_g5v0d10v5#dbody = 3.788982e-11
m.xm18.msky130_fd_pr__nfet_g5v0d10v5#sbody = 7.577981e-12
m.xm19.msky130_fd_pr__nfet_g5v0d10v5#body = 1.727161e-11
m.xm19.msky130_fd_pr__nfet_g5v0d10v5#dbody = 3.593742e-11
m.xm19.msky130_fd_pr__nfet_g5v0d10v5#sbody = 1.587741e-11
m.xm20.msky130_fd_pr__nfet_g5v0d10v5#body = 1.198249e-11
m.xm20.msky130_fd_pr__nfet_g5v0d10v5#dbody = 2.995622e-11
m.xm20.msky130_fd_pr__nfet_g5v0d10v5#sbody = 5.991258e-12
m.xm22.msky130_fd_pr__nfet_g5v0d10v5#body = 3.623517e-12
m.xm22.msky130_fd_pr__nfet_g5v0d10v5#dbody = 9.058787e-12
m.xm22.msky130_fd_pr__nfet_g5v0d10v5#sbody = 1.811763e-12
m.xm24.msky130_fd_pr__pfet_g5v0d10v5#body = 2.300000e+00
m.xm24.msky130_fd_pr__pfet_g5v0d10v5#dbody = 2.300000e+00
m.xm24.msky130_fd_pr__pfet_g5v0d10v5#sbody = 2.300000e+00
m.xm26.msky130_fd_pr__pfet_g5v0d10v5#body = 2.300000e+00
m.xm26.msky130_fd_pr__pfet_g5v0d10v5#dbody = 2.300000e+00
m.xm26.msky130_fd_pr__pfet_g5v0d10v5#sbody = 2.300000e+00
mir = 1.088793e+00
net1 = 7.251315e-01
net2 = 1.341738e-05
net3 = 7.846811e-01
net4 = 2.893166e-01
net5 = 1.091717e+00
net6 = 9.364568e-01
net7 = 7.846564e-01
net8 = 1.161689e+00
net9 = 1.175372e+00
net10 = 2.536360e-01
net11 = 1.212344e+00
net12 = 1.212344e+00
net13 = 0.000000e+00
out = 1.212344e+00
pos = 1.192727e+00
q.xq2.qsky130_fd_pr__pnp_05v5_w0p68l0p68#collcx = 2.094014e-03
q.xq3.qsky130_fd_pr__pnp_05v5_w0p68l0p68#collcx = 2.636880e-04
q.xq4.qsky130_fd_pr__pnp_05v5_w0p68l0p68#collcx = 2.636880e-04
q.xq8.qsky130_fd_pr__pnp_05v5_w0p68l0p68#collcx = 2.636880e-04
q.xq10.qsky130_fd_pr__pnp_05v5_w0p68l0p68#collcx = 2.636880e-04
q.xq12.qsky130_fd_pr__pnp_05v5_w0p68l0p68#collcx = 2.636880e-04
q.xq14.qsky130_fd_pr__pnp_05v5_w0p68l0p68#collcx = 2.636880e-04
q.xq16.qsky130_fd_pr__pnp_05v5_w0p68l0p68#collcx = 2.636880e-04
q.xq18.qsky130_fd_pr__pnp_05v5_w0p68l0p68#collcx = 2.636880e-04
vb = 9.584688e-01
vdd = 2.300000e+00
vs#branch = -1.00839e-02
vt#branch = 0.000000e+00
xc1.a = 0.000000e+00
xc1.b1 = 0.000000e+00
xc3.a = 1.212344e+00
xc3.b1 = 1.212344e+00
xr1.xsky130_fd_pr__res_xhigh_po_0p69.ra = 7.922040e-01
xr2.xsky130_fd_pr__res_xhigh_po_0p69.ra = 7.922287e-01
xr3.xsky130_fd_pr__res_xhigh_po_0p69.ra = 5.108775e-03
xr4.xsky130_fd_pr__res_xhigh_po_0p69.ra = 7.276690e-01
xr5.xsky130_fd_pr__res_xhigh_po_0p69.ra = 5.108604e-03
xr6.xsky130_fd_pr__res_xhigh_po_0p69.ra = 8.022810e-03
xr7.xsky130_fd_pr__res_xhigh_po_0p69.ra = 1.212344e+00
xr8.xsky130_fd_pr__res_xhigh_po_0p69.ra = 1.206076e+00
xr9.xsky130_fd_pr__res_xhigh_po_0p69.ra = 1.399873e-02
Doing analysis at TEMP = 27.000000 and TNOM = 27.000000


No. of Data Rows : 91
Note: Starting true gmin stepping
Trying gmin =   1.0000E-03 Note: One successful gmin step
Trying gmin =   1.0000E-04 Note: One successful gmin step
Trying gmin =   1.0000E-05 Note: One successful gmin step
Trying gmin =   1.0000E-06 Note: One successful gmin step
Trying gmin =   1.0000E-07 Note: One successful gmin step
Trying gmin =   1.0000E-08 Warning: Further gmin increment
Trying gmin =   5.6234E-08 Note: One successful gmin step
Trying gmin =   2.3714E-08 Warning: Further gmin increment
Trying gmin =   4.5316E-08 Warning: Further gmin increment
Trying gmin =   5.3280E-08 Note: One successful gmin step
Trying gmin =   4.9137E-08 Warning: Further gmin increment
Trying gmin =   5.2212E-08 Warning: Further gmin increment
Trying gmin =   5.3011E-08 Note: One successful gmin step
Trying gmin =   5.2610E-08 Note: One successful gmin step
Trying gmin =   5.2015E-08 Warning: Further gmin increment
Trying gmin =   5.2461E-08 Warning: Further gmin increment
Trying gmin =   5.2573E-08 Warning: Further gmin increment
Trying gmin =   5.2601E-08 Note: One successful gmin step
Trying gmin =   5.2587E-08 Note: One successful gmin step
Trying gmin =   5.2566E-08 Warning: Further gmin increment
Trying gmin =   5.2581E-08 Note: One successful gmin step
Trying gmin =   5.2574E-08 Warning: Further gmin increment
Trying gmin =   5.2580E-08 Warning: Last gmin step failed
Warning: True gmin stepping failed
Note: Starting dynamic gmin stepping
Trying gmin =   1.0000E-03 Note: One successful gmin step
Trying gmin =   1.0000E-04 Note: One successful gmin step
Trying gmin =   1.0000E-05 Warning: Further gmin increment
Trying gmin =   5.6234E-05 Note: One successful gmin step
Trying gmin =   2.3714E-05 Note: One successful gmin step
Trying gmin =   6.4938E-06 Warning: Further gmin increment
Trying gmin =   1.7154E-05 Note: One successful gmin step
Trying gmin =   1.0554E-05 Warning: Further gmin increment
Trying gmin =   1.5193E-05 Note: One successful gmin step
Trying gmin =   1.2663E-05 Note: One successful gmin step
Trying gmin =   9.6358E-06 Warning: Further gmin increment
Trying gmin =   1.1827E-05 Note: One successful gmin step
Trying gmin =   1.0675E-05 Note: One successful gmin step
Trying gmin =   9.1546E-06 Note: One successful gmin step
Trying gmin =   7.2699E-06 Note: One successful gmin step
Trying gmin =   5.1447E-06 Note: One successful gmin step
Trying gmin =   3.0627E-06 Note: One successful gmin step
Trying gmin =   2.3631E-06 Note: One successful gmin step
Trying gmin =   1.6015E-06 Warning: Further gmin increment
Trying gmin =   2.1441E-06 Note: One successful gmin step
Trying gmin =   1.8531E-06 Note: One successful gmin step
Trying gmin =   1.4889E-06 Warning: Further gmin increment
Trying gmin =   1.7544E-06 Note: One successful gmin step
Trying gmin =   1.6162E-06 Note: One successful gmin step
Trying gmin =   1.4889E-06 Note: One successful gmin step
Trying gmin =   1.3165E-06 Note: One successful gmin step
Trying gmin =   1.0945E-06 Note: One successful gmin step
Trying gmin =   8.2976E-07 Note: One successful gmin step
Trying gmin =   5.4770E-07 Note: One successful gmin step
Trying gmin =   2.9372E-07 Note: One successful gmin step
Trying gmin =   1.1535E-07 Note: One successful gmin step
Trying gmin =   2.8389E-08 Note: One successful gmin step
Trying gmin =   3.4661E-09 Note: One successful gmin step
Trying gmin =   3.4661E-10 Note: One successful gmin step
Trying gmin =   3.4661E-11 Note: One successful gmin step
Trying gmin =   3.4661E-12 Note: One successful gmin step
Trying gmin =   1.0000E-12 Note: One successful gmin step
Note: Dynamic gmin stepping completed
 Reference value :  2.80000e+00Note: Starting true gmin stepping
Trying gmin =   1.0000E-03 Note: One successful gmin step
Trying gmin =   1.0000E-04 Note: One successful gmin step
Trying gmin =   1.0000E-05 Note: One successful gmin step
Trying gmin =   1.0000E-06 Note: One successful gmin step
Trying gmin =   1.0000E-07 Note: One successful gmin step
Trying gmin =   1.0000E-08 Note: One successful gmin step
Trying gmin =   1.0000E-09 Warning: Further gmin increment
Trying gmin =   5.6234E-09 Warning: Further gmin increment
Trying gmin =   8.6596E-09 Note: One successful gmin step
Trying gmin =   6.9783E-09 Note: One successful gmin step
Trying gmin =   5.0481E-09 Note: One successful gmin step
Trying gmin =   3.1059E-09 Note: One successful gmin step
Trying gmin =   1.9110E-09 Note: One successful gmin step
Trying gmin =   9.2224E-10 Note: One successful gmin step
Trying gmin =   3.0920E-10 Note: One successful gmin step
Trying gmin =   6.0023E-11 Note: One successful gmin step
Trying gmin =   6.0023E-12 Note: One successful gmin step
Trying gmin =   1.0000E-12 Note: One successful gmin step
Note: True gmin stepping completed
Note: Starting true gmin stepping
Trying gmin =   1.0000E-03 Note: One successful gmin step
Trying gmin =   1.0000E-04 Note: One successful gmin step
Trying gmin =   1.0000E-05 Note: One successful gmin step
Trying gmin =   1.0000E-06 Note: One successful gmin step
Trying gmin =   1.0000E-07 Note: One successful gmin step
Trying gmin =   1.0000E-08 Warning: Further gmin increment
Trying gmin =   5.6234E-08 Note: One successful gmin step
Trying gmin =   2.3714E-08 Note: One successful gmin step
Trying gmin =   6.4938E-09 Note: One successful gmin step
Trying gmin =   9.3057E-10 Note: One successful gmin step
Trying gmin =   3.5227E-10 Note: One successful gmin step
Trying gmin =   8.2047E-11 Note: One successful gmin step
Trying gmin =   9.2224E-12 Note: One successful gmin step
Trying gmin =   1.0000E-12 Note: One successful gmin step
Note: True gmin stepping completed
 Reference value :  1.32000e+00Note: Starting true gmin stepping
Trying gmin =   1.0000E-03 Note: One successful gmin step
Trying gmin =   1.0000E-04 Note: One successful gmin step
Trying gmin =   1.0000E-05 Note: One successful gmin step
Trying gmin =   1.0000E-06 Note: One successful gmin step
Trying gmin =   1.0000E-07 Note: One successful gmin step
Trying gmin =   1.0000E-08 Note: One successful gmin step
Trying gmin =   1.0000E-09 Error: -3.59154e+165, 2 out of range for ^
Warning: Further gmin increment
Trying gmin =   5.6234E-09 Note: One successful gmin step
Trying gmin =   2.3714E-09 Warning: Further gmin increment
Trying gmin =   4.5316E-09 Note: One successful gmin step
Trying gmin =   3.2781E-09 Warning: Further gmin increment
Trying gmin =   4.1792E-09 Note: One successful gmin step
Trying gmin =   3.7013E-09 Note: One successful gmin step
Trying gmin =   3.0850E-09 Note: One successful gmin step
Trying gmin =   2.3475E-09 Note: One successful gmin step
Trying gmin =   1.5582E-09 Note: One successful gmin step
Trying gmin =   8.4267E-10 Warning: Further gmin increment
Trying gmin =   1.3362E-09 Warning: Further gmin increment
Trying gmin =   1.4995E-09 Note: One successful gmin step
Trying gmin =   1.4155E-09 Note: One successful gmin step
Trying gmin =   1.2983E-09 Note: One successful gmin step
Trying gmin =   1.1404E-09 Note: One successful gmin step
Trying gmin =   9.3883E-10 Note: One successful gmin step
Trying gmin =   7.0126E-10 Note: One successful gmin step
Trying gmin =   4.5271E-10 Note: One successful gmin step
Trying gmin =   2.3482E-10 Note: One successful gmin step
Trying gmin =   8.7721E-11 Note: One successful gmin step
Trying gmin =   2.0029E-11 Note: One successful gmin step
Trying gmin =   2.1852E-12 Note: One successful gmin step
Trying gmin =   1.0000E-12 Note: One successful gmin step
Note: True gmin stepping completed
Note: Starting true gmin stepping
Trying gmin =   1.0000E-03 Note: One successful gmin step
Trying gmin =   1.0000E-04 Note: One successful gmin step
Trying gmin =   1.0000E-05 Note: One successful gmin step
Trying gmin =   1.0000E-06 Note: One successful gmin step
Trying gmin =   1.0000E-07 Note: One successful gmin step
Trying gmin =   1.0000E-08 Note: One successful gmin step
Trying gmin =   3.1623E-09 Note: One successful gmin step
Trying gmin =   5.6234E-10 Warning: Further gmin increment
Trying gmin =   2.0535E-09 Note: One successful gmin step
Trying gmin =   1.0746E-09 Warning: Further gmin increment
Trying gmin =   1.7466E-09 Note: One successful gmin step
Trying gmin =   1.3700E-09 Note: One successful gmin step
Trying gmin =   9.5173E-10 Warning: Further gmin increment
Trying gmin =   1.2507E-09 Note: One successful gmin step
Trying gmin =   1.0910E-09 Note: One successful gmin step
Trying gmin =   9.5173E-10 Note: One successful gmin step
Trying gmin =   7.7540E-10 Note: One successful gmin step
Trying gmin =   5.7022E-10 Note: One successful gmin step
Trying gmin =   3.5960E-10 Note: One successful gmin step
Trying gmin =   1.8009E-10 Note: One successful gmin step
Trying gmin =   6.3822E-11 Note: One successful gmin step
Trying gmin =   1.3465E-11 Note: One successful gmin step
Trying gmin =   1.3465E-12 Note: One successful gmin step
Trying gmin =   1.0000E-12 Note: One successful gmin step
Note: True gmin stepping completed
 Reference value :  1.26000e+00pm                  =  -9.948913e+01
Doing analysis at TEMP = 27.000000 and TNOM = 27.000000


No. of Data Rows : 91
psrr100             =  -8.369278e+01
psrr100k            =  -2.537801e+01
Doing analysis at TEMP = 27.000000 and TNOM = 27.000000


No. of Data Rows : 86
temp_coeff = 9.790394e+01
Doing analysis at TEMP = 27.000000 and TNOM = 27.000000


No. of Data Rows : 141
vldo_sup_2          =  1.793287e+00
vldo_sup_2_8        =  1.793297e+00
line_reg = 1.250000e-05
Note: No ".plot", ".print", or ".fourier" lines; no simulations run
vin                 =  1.781386e+00
dropout = 1.738600e-02
