 Reference value :  0.00000e+00
No compatibility mode selected!


Circuit: * ldo netlist 

Doing analysis at TEMP = 85.000000 and TNOM = 27.000000


No. of Data Rows : 1
bg_out = 1.206858e+00
inn = 1.157685e+00
inp = 1.157619e+00
l1#branch = 1.734723e-18
ldo_out = 1.816179e+00
m.xm1.msky130_fd_pr__nfet_g5v0d10v5#body = 2.710598e-11
m.xm1.msky130_fd_pr__nfet_g5v0d10v5#dbody = 5.091767e-11
m.xm1.msky130_fd_pr__nfet_g5v0d10v5#sbody = 3.040028e-11
m.xm2.msky130_fd_pr__pfet_g5v0d10v5#body = 2.300000e+00
m.xm2.msky130_fd_pr__pfet_g5v0d10v5#dbody = 2.300000e+00
m.xm2.msky130_fd_pr__pfet_g5v0d10v5#sbody = 2.300000e+00
m.xm3.msky130_fd_pr__pfet_g5v0d10v5#body = 2.300000e+00
m.xm3.msky130_fd_pr__pfet_g5v0d10v5#dbody = 2.300000e+00
m.xm3.msky130_fd_pr__pfet_g5v0d10v5#sbody = 2.300000e+00
m.xm4.msky130_fd_pr__pfet_g5v0d10v5#body = 2.300000e+00
m.xm4.msky130_fd_pr__pfet_g5v0d10v5#dbody = 2.300000e+00
m.xm4.msky130_fd_pr__pfet_g5v0d10v5#sbody = 2.300000e+00
m.xm5.msky130_fd_pr__pfet_g5v0d10v5#body = 2.300000e+00
m.xm5.msky130_fd_pr__pfet_g5v0d10v5#dbody = 2.300000e+00
m.xm5.msky130_fd_pr__pfet_g5v0d10v5#sbody = 2.300000e+00
m.xm6.msky130_fd_pr__nfet_g5v0d10v5#body = 2.037515e-11
m.xm6.msky130_fd_pr__nfet_g5v0d10v5#dbody = 5.093776e-11
m.xm6.msky130_fd_pr__nfet_g5v0d10v5#sbody = 1.018769e-11
m.xm7.msky130_fd_pr__pfet_g5v0d10v5#body = 2.300000e+00
m.xm7.msky130_fd_pr__pfet_g5v0d10v5#dbody = 2.300000e+00
m.xm7.msky130_fd_pr__pfet_g5v0d10v5#sbody = 2.300000e+00
m.xm8.msky130_fd_pr__pfet_g5v0d10v5#body = 2.300000e+00
m.xm8.msky130_fd_pr__pfet_g5v0d10v5#dbody = 2.300000e+00
m.xm8.msky130_fd_pr__pfet_g5v0d10v5#sbody = 2.300000e+00
m.xm9.msky130_fd_pr__nfet_g5v0d10v5#body = 2.535341e-11
m.xm9.msky130_fd_pr__nfet_g5v0d10v5#dbody = 4.941803e-11
m.xm9.msky130_fd_pr__nfet_g5v0d10v5#sbody = 2.664220e-11
m.xm10.msky130_fd_pr__nfet_g5v0d10v5#body = 2.525266e-11
m.xm10.msky130_fd_pr__nfet_g5v0d10v5#dbody = 4.916617e-11
m.xm10.msky130_fd_pr__nfet_g5v0d10v5#sbody = 2.659183e-11
m.xm11.msky130_fd_pr__pfet_g5v0d10v5#body = 2.300000e+00
m.xm11.msky130_fd_pr__pfet_g5v0d10v5#dbody = 2.300000e+00
m.xm11.msky130_fd_pr__pfet_g5v0d10v5#sbody = 2.300000e+00
m.xm12.msky130_fd_pr__pfet_g5v0d10v5#body = 2.300000e+00
m.xm12.msky130_fd_pr__pfet_g5v0d10v5#dbody = 2.300000e+00
m.xm12.msky130_fd_pr__pfet_g5v0d10v5#sbody = 2.300000e+00
m.xm13.msky130_fd_pr__nfet_g5v0d10v5#body = 5.335546e-12
m.xm13.msky130_fd_pr__nfet_g5v0d10v5#dbody = 1.333879e-11
m.xm13.msky130_fd_pr__nfet_g5v0d10v5#sbody = 2.667843e-12
m.xm14.msky130_fd_pr__pfet_g5v0d10v5#body = 2.300000e+00
m.xm14.msky130_fd_pr__pfet_g5v0d10v5#dbody = 2.300000e+00
m.xm14.msky130_fd_pr__pfet_g5v0d10v5#sbody = 2.300000e+00
m.xm15.msky130_fd_pr__nfet_g5v0d10v5#body = 9.054094e-15
m.xm15.msky130_fd_pr__nfet_g5v0d10v5#dbody = 2.263482e-14
m.xm15.msky130_fd_pr__nfet_g5v0d10v5#sbody = 4.527466e-15
m.xm16.msky130_fd_pr__nfet_g5v0d10v5#body = 5.382739e-11
m.xm16.msky130_fd_pr__nfet_g5v0d10v5#dbody = 9.502002e-11
m.xm16.msky130_fd_pr__nfet_g5v0d10v5#sbody = 6.646215e-11
m.xm17.msky130_fd_pr__pfet_g5v0d10v5#body = 2.300000e+00
m.xm17.msky130_fd_pr__pfet_g5v0d10v5#dbody = 2.300000e+00
m.xm17.msky130_fd_pr__pfet_g5v0d10v5#sbody = 2.300000e+00
m.xm18.msky130_fd_pr__nfet_g5v0d10v5#body = 1.072262e-11
m.xm18.msky130_fd_pr__nfet_g5v0d10v5#dbody = 2.680647e-11
m.xm18.msky130_fd_pr__nfet_g5v0d10v5#sbody = 5.361386e-12
m.xm19.msky130_fd_pr__nfet_g5v0d10v5#body = 2.719636e-11
m.xm19.msky130_fd_pr__nfet_g5v0d10v5#dbody = 5.114361e-11
m.xm19.msky130_fd_pr__nfet_g5v0d10v5#sbody = 3.044547e-11
m.xm20.msky130_fd_pr__nfet_g5v0d10v5#body = 1.438081e-11
m.xm20.msky130_fd_pr__nfet_g5v0d10v5#dbody = 3.595193e-11
m.xm20.msky130_fd_pr__nfet_g5v0d10v5#sbody = 7.190482e-12
m.xm22.msky130_fd_pr__nfet_g5v0d10v5#body = 1.171745e-11
m.xm22.msky130_fd_pr__nfet_g5v0d10v5#dbody = 2.929352e-11
m.xm22.msky130_fd_pr__nfet_g5v0d10v5#sbody = 5.858839e-12
m.xm24.msky130_fd_pr__pfet_g5v0d10v5#body = 2.300000e+00
m.xm24.msky130_fd_pr__pfet_g5v0d10v5#dbody = 2.300000e+00
m.xm24.msky130_fd_pr__pfet_g5v0d10v5#sbody = 2.300000e+00
m.xm26.msky130_fd_pr__pfet_g5v0d10v5#body = 2.300000e+00
m.xm26.msky130_fd_pr__pfet_g5v0d10v5#dbody = 2.300000e+00
m.xm26.msky130_fd_pr__pfet_g5v0d10v5#sbody = 2.300000e+00
mir = 1.070334e+00
net1 = 6.384076e-01
net2 = 1.745213e-05
net3 = 7.117712e-01
net4 = 2.498688e-01
net5 = 1.077564e+00
net6 = 9.421108e-01
net7 = 7.117034e-01
net8 = 1.169162e+00
net9 = 1.177222e+00
net10 = 2.662853e-01
net11 = 6.971975e-01
net12 = 6.971975e-01
net13 = 0.000000e+00
out = 6.971975e-01
pos = 1.206952e+00
q.xq2.qsky130_fd_pr__pnp_05v5_w0p68l0p68#collcx = 2.934457e-03
q.xq3.qsky130_fd_pr__pnp_05v5_w0p68l0p68#collcx = 3.735769e-04
q.xq4.qsky130_fd_pr__pnp_05v5_w0p68l0p68#collcx = 3.735769e-04
q.xq8.qsky130_fd_pr__pnp_05v5_w0p68l0p68#collcx = 3.735769e-04
q.xq10.qsky130_fd_pr__pnp_05v5_w0p68l0p68#collcx = 3.735769e-04
q.xq12.qsky130_fd_pr__pnp_05v5_w0p68l0p68#collcx = 3.735769e-04
q.xq14.qsky130_fd_pr__pnp_05v5_w0p68l0p68#collcx = 3.735769e-04
q.xq16.qsky130_fd_pr__pnp_05v5_w0p68l0p68#collcx = 3.735769e-04
q.xq18.qsky130_fd_pr__pnp_05v5_w0p68l0p68#collcx = 3.735769e-04
vb = 9.898525e-01
vdd = 2.300000e+00
vs#branch = -1.01042e-01
vt#branch = 0.000000e+00
xc1.a = 0.000000e+00
xc1.b1 = 0.000000e+00
xc3.a = 6.971975e-01
xc3.b1 = 6.971975e-01
xr1.xsky130_fd_pr__res_xhigh_po_0p69.ra = 7.148874e-01
xr2.xsky130_fd_pr__res_xhigh_po_0p69.ra = 7.149551e-01
xr3.xsky130_fd_pr__res_xhigh_po_0p69.ra = 1.912067e-03
xr4.xsky130_fd_pr__res_xhigh_po_0p69.ra = 6.396984e-01
xr5.xsky130_fd_pr__res_xhigh_po_0p69.ra = 1.911874e-03
xr6.xsky130_fd_pr__res_xhigh_po_0p69.ra = 3.374331e-03
xr7.xsky130_fd_pr__res_xhigh_po_0p69.ra = 6.971975e-01
xr8.xsky130_fd_pr__res_xhigh_po_0p69.ra = 1.212557e+00
xr9.xsky130_fd_pr__res_xhigh_po_0p69.ra = 5.880601e-03
Doing analysis at TEMP = 85.000000 and TNOM = 27.000000


No. of Data Rows : 91
Note: Starting true gmin stepping
Trying gmin =   1.0000E-03 Note: One successful gmin step
Trying gmin =   1.0000E-04 Note: One successful gmin step
Trying gmin =   1.0000E-05 Note: One successful gmin step
Trying gmin =   1.0000E-06 Note: One successful gmin step
Trying gmin =   1.0000E-07 Note: One successful gmin step
Trying gmin =   1.0000E-08 Note: One successful gmin step
Trying gmin =   1.0000E-09 Warning: Further gmin increment
Trying gmin =   5.6234E-09 Note: One successful gmin step
Trying gmin =   2.3714E-09 Note: One successful gmin step
Trying gmin =   1.0000E-09 Warning: Further gmin increment
Trying gmin =   1.9110E-09 Note: One successful gmin step
Trying gmin =   1.3824E-09 Note: One successful gmin step
Trying gmin =   8.5053E-10 Note: One successful gmin step
Trying gmin =   4.1047E-10 Note: One successful gmin step
Trying gmin =   1.3762E-10 Note: One successful gmin step
Trying gmin =   2.6715E-11 Note: One successful gmin step
Trying gmin =   2.6715E-12 Note: One successful gmin step
Trying gmin =   1.0000E-12 Note: One successful gmin step
Note: True gmin stepping completed
 Reference value :  1.22000e+00Note: Starting true gmin stepping
Trying gmin =   1.0000E-03 Note: One successful gmin step
Trying gmin =   1.0000E-04 Note: One successful gmin step
Trying gmin =   1.0000E-05 Note: One successful gmin step
Trying gmin =   1.0000E-06 Note: One successful gmin step
Trying gmin =   1.0000E-07 Note: One successful gmin step
Trying gmin =   1.0000E-08 Note: One successful gmin step
Trying gmin =   1.0000E-09 Warning: Further gmin increment
Trying gmin =   5.6234E-09 Note: One successful gmin step
Trying gmin =   2.3714E-09 Note: One successful gmin step
Trying gmin =   1.0000E-09 Error: -4.03624e+182, 2 out of range for ^
Warning: Further gmin increment
Trying gmin =   1.9110E-09 Note: One successful gmin step
Trying gmin =   1.3824E-09 Warning: Further gmin increment
Trying gmin =   1.7624E-09 Note: One successful gmin step
Trying gmin =   1.5608E-09 Note: One successful gmin step
Trying gmin =   1.3009E-09 Note: One successful gmin step
Trying gmin =   9.8993E-10 Note: One successful gmin step
Trying gmin =   6.5709E-10 Note: One successful gmin step
Trying gmin =   3.5535E-10 Note: One successful gmin step
Trying gmin =   1.4132E-10 Note: One successful gmin step
Trying gmin =   3.5443E-11 Note: One successful gmin step
Trying gmin =   4.4516E-12 Note: One successful gmin step
Trying gmin =   1.0000E-12 Note: One successful gmin step
Note: True gmin stepping completed
pm                  =  1.217522e+02
Doing analysis at TEMP = 85.000000 and TNOM = 27.000000


No. of Data Rows : 91
psrr100             =  -4.890181e+01
psrr100k            =  -2.167677e+01
Doing analysis at TEMP = 85.000000 and TNOM = 27.000000


No. of Data Rows : 86
temp_coeff = 1.814586e+02
Doing analysis at TEMP = 85.000000 and TNOM = 27.000000


No. of Data Rows : 141
vldo_sup_2          =  1.779835e+00
vldo_sup_2_8        =  1.817154e+00
line_reg = 4.664875e-02
Note: No ".plot", ".print", or ".fourier" lines; no simulations run
vin                 =  1.985233e+00
dropout = 2.212330e-01
