 Reference value :  0.00000e+00
No compatibility mode selected!


Circuit: * ldo netlist 

Doing analysis at TEMP = 27.000000 and TNOM = 27.000000


No. of Data Rows : 1
bg_out = 1.195697e+00
inn = 1.227433e+00
inp = 1.227407e+00
l1#branch = 0.000000e+00
ldo_out = 1.799875e+00
m.xm1.msky130_fd_pr__nfet_g5v0d10v5#body = 2.012976e-11
m.xm1.msky130_fd_pr__nfet_g5v0d10v5#dbody = 4.429301e-11
m.xm1.msky130_fd_pr__nfet_g5v0d10v5#sbody = 1.609625e-11
m.xm2.msky130_fd_pr__pfet_g5v0d10v5#body = 2.500000e+00
m.xm2.msky130_fd_pr__pfet_g5v0d10v5#dbody = 2.500000e+00
m.xm2.msky130_fd_pr__pfet_g5v0d10v5#sbody = 2.500000e+00
m.xm3.msky130_fd_pr__pfet_g5v0d10v5#body = 2.500000e+00
m.xm3.msky130_fd_pr__pfet_g5v0d10v5#dbody = 2.500000e+00
m.xm3.msky130_fd_pr__pfet_g5v0d10v5#sbody = 2.500000e+00
m.xm4.msky130_fd_pr__pfet_g5v0d10v5#body = 2.500000e+00
m.xm4.msky130_fd_pr__pfet_g5v0d10v5#dbody = 2.500000e+00
m.xm4.msky130_fd_pr__pfet_g5v0d10v5#sbody = 2.500000e+00
m.xm5.msky130_fd_pr__pfet_g5v0d10v5#body = 2.500000e+00
m.xm5.msky130_fd_pr__pfet_g5v0d10v5#dbody = 2.500000e+00
m.xm5.msky130_fd_pr__pfet_g5v0d10v5#sbody = 2.500000e+00
m.xm6.msky130_fd_pr__nfet_g5v0d10v5#body = 1.246076e-11
m.xm6.msky130_fd_pr__nfet_g5v0d10v5#dbody = 3.115190e-11
m.xm6.msky130_fd_pr__nfet_g5v0d10v5#sbody = 6.230387e-12
m.xm7.msky130_fd_pr__pfet_g5v0d10v5#body = 2.500000e+00
m.xm7.msky130_fd_pr__pfet_g5v0d10v5#dbody = 2.500000e+00
m.xm7.msky130_fd_pr__pfet_g5v0d10v5#sbody = 2.500000e+00
m.xm8.msky130_fd_pr__pfet_g5v0d10v5#body = 2.500000e+00
m.xm8.msky130_fd_pr__pfet_g5v0d10v5#dbody = 2.500000e+00
m.xm8.msky130_fd_pr__pfet_g5v0d10v5#sbody = 2.500000e+00
m.xm9.msky130_fd_pr__nfet_g5v0d10v5#body = 2.081645e-11
m.xm9.msky130_fd_pr__nfet_g5v0d10v5#dbody = 4.696012e-11
m.xm9.msky130_fd_pr__nfet_g5v0d10v5#sbody = 1.548905e-11
m.xm10.msky130_fd_pr__nfet_g5v0d10v5#body = 2.061879e-11
m.xm10.msky130_fd_pr__nfet_g5v0d10v5#dbody = 4.646603e-11
m.xm10.msky130_fd_pr__nfet_g5v0d10v5#sbody = 1.539022e-11
m.xm11.msky130_fd_pr__pfet_g5v0d10v5#body = 2.500000e+00
m.xm11.msky130_fd_pr__pfet_g5v0d10v5#dbody = 2.500000e+00
m.xm11.msky130_fd_pr__pfet_g5v0d10v5#sbody = 2.500000e+00
m.xm12.msky130_fd_pr__pfet_g5v0d10v5#body = 2.500000e+00
m.xm12.msky130_fd_pr__pfet_g5v0d10v5#dbody = 2.500000e+00
m.xm12.msky130_fd_pr__pfet_g5v0d10v5#sbody = 2.500000e+00
m.xm13.msky130_fd_pr__nfet_g5v0d10v5#body = 2.539056e-12
m.xm13.msky130_fd_pr__nfet_g5v0d10v5#dbody = 6.347630e-12
m.xm13.msky130_fd_pr__nfet_g5v0d10v5#sbody = 1.269539e-12
m.xm14.msky130_fd_pr__pfet_g5v0d10v5#body = 2.500000e+00
m.xm14.msky130_fd_pr__pfet_g5v0d10v5#dbody = 2.500000e+00
m.xm14.msky130_fd_pr__pfet_g5v0d10v5#sbody = 2.500000e+00
m.xm15.msky130_fd_pr__nfet_g5v0d10v5#body = 1.721366e-15
m.xm15.msky130_fd_pr__nfet_g5v0d10v5#dbody = 4.303345e-15
m.xm15.msky130_fd_pr__nfet_g5v0d10v5#sbody = 8.607537e-16
m.xm16.msky130_fd_pr__nfet_g5v0d10v5#body = 4.660167e-11
m.xm16.msky130_fd_pr__nfet_g5v0d10v5#dbody = 8.580959e-11
m.xm16.msky130_fd_pr__nfet_g5v0d10v5#sbody = 5.399541e-11
m.xm17.msky130_fd_pr__pfet_g5v0d10v5#body = 2.500000e+00
m.xm17.msky130_fd_pr__pfet_g5v0d10v5#dbody = 2.500000e+00
m.xm17.msky130_fd_pr__pfet_g5v0d10v5#sbody = 2.500000e+00
m.xm18.msky130_fd_pr__nfet_g5v0d10v5#body = 1.461858e-11
m.xm18.msky130_fd_pr__nfet_g5v0d10v5#dbody = 3.654643e-11
m.xm18.msky130_fd_pr__nfet_g5v0d10v5#sbody = 7.309302e-12
m.xm19.msky130_fd_pr__nfet_g5v0d10v5#body = 2.017590e-11
m.xm19.msky130_fd_pr__nfet_g5v0d10v5#dbody = 4.440836e-11
m.xm19.msky130_fd_pr__nfet_g5v0d10v5#sbody = 1.611932e-11
m.xm20.msky130_fd_pr__nfet_g5v0d10v5#body = 1.309485e-11
m.xm20.msky130_fd_pr__nfet_g5v0d10v5#dbody = 3.273711e-11
m.xm20.msky130_fd_pr__nfet_g5v0d10v5#sbody = 6.547438e-12
m.xm22.msky130_fd_pr__nfet_g5v0d10v5#body = 3.018399e-12
m.xm22.msky130_fd_pr__nfet_g5v0d10v5#dbody = 7.545992e-12
m.xm22.msky130_fd_pr__nfet_g5v0d10v5#sbody = 1.509204e-12
m.xm24.msky130_fd_pr__pfet_g5v0d10v5#body = 2.500000e+00
m.xm24.msky130_fd_pr__pfet_g5v0d10v5#dbody = 2.500000e+00
m.xm24.msky130_fd_pr__pfet_g5v0d10v5#sbody = 2.500000e+00
m.xm26.msky130_fd_pr__pfet_g5v0d10v5#body = 2.500000e+00
m.xm26.msky130_fd_pr__pfet_g5v0d10v5#dbody = 2.500000e+00
m.xm26.msky130_fd_pr__pfet_g5v0d10v5#sbody = 2.500000e+00
mir = 1.368775e+00
net1 = 7.274591e-01
net2 = 1.324457e-04
net3 = 7.873247e-01
net4 = 2.409048e-01
net5 = 1.372467e+00
net6 = 9.962938e-01
net7 = 7.872983e-01
net8 = 1.446024e+00
net9 = 1.461834e+00
net10 = 2.029916e-01
net11 = 1.169353e+00
net12 = 1.169353e+00
net13 = 0.000000e+00
out = 1.169353e+00
pos = 1.196251e+00
q.xq2.qsky130_fd_pr__pnp_05v5_w0p68l0p68#collcx = 2.277775e-03
q.xq3.qsky130_fd_pr__pnp_05v5_w0p68l0p68#collcx = 2.870525e-04
q.xq4.qsky130_fd_pr__pnp_05v5_w0p68l0p68#collcx = 2.870525e-04
q.xq8.qsky130_fd_pr__pnp_05v5_w0p68l0p68#collcx = 2.870525e-04
q.xq10.qsky130_fd_pr__pnp_05v5_w0p68l0p68#collcx = 2.870525e-04
q.xq12.qsky130_fd_pr__pnp_05v5_w0p68l0p68#collcx = 2.870525e-04
q.xq14.qsky130_fd_pr__pnp_05v5_w0p68l0p68#collcx = 2.870525e-04
q.xq16.qsky130_fd_pr__pnp_05v5_w0p68l0p68#collcx = 2.870525e-04
q.xq18.qsky130_fd_pr__pnp_05v5_w0p68l0p68#collcx = 2.870525e-04
vb = 1.047455e+00
vdd = 2.500000e+00
vs#branch = -1.00124e-01
vt#branch = 0.000000e+00
xc1.a = 0.000000e+00
xc1.b1 = 0.000000e+00
xc3.a = 1.169353e+00
xc3.b1 = 1.169353e+00
xr1.xsky130_fd_pr__res_xhigh_po_0p69.ra = 7.902018e-01
xr2.xsky130_fd_pr__res_xhigh_po_0p69.ra = 7.902283e-01
xr3.xsky130_fd_pr__res_xhigh_po_0p69.ra = 1.966669e-03
xr4.xsky130_fd_pr__res_xhigh_po_0p69.ra = 7.284340e-01
xr5.xsky130_fd_pr__res_xhigh_po_0p69.ra = 1.966599e-03
xr6.xsky130_fd_pr__res_xhigh_po_0p69.ra = 3.086546e-03
xr7.xsky130_fd_pr__res_xhigh_po_0p69.ra = 1.169353e+00
xr8.xsky130_fd_pr__res_xhigh_po_0p69.ra = 1.201383e+00
xr9.xsky130_fd_pr__res_xhigh_po_0p69.ra = 5.382172e-03
Doing analysis at TEMP = 27.000000 and TNOM = 27.000000


No. of Data Rows : 91
Note: Starting true gmin stepping
Trying gmin =   1.0000E-03 Note: One successful gmin step
Trying gmin =   1.0000E-04 Note: One successful gmin step
Trying gmin =   1.0000E-05 Note: One successful gmin step
Trying gmin =   1.0000E-06 Warning: Further gmin increment
Trying gmin =   5.6234E-06 Note: One successful gmin step
Trying gmin =   2.3714E-06 Note: One successful gmin step
Trying gmin =   6.4938E-07 Warning: Further gmin increment
Trying gmin =   1.7154E-06 Note: One successful gmin step
Trying gmin =   1.0554E-06 Note: One successful gmin step
Trying gmin =   5.0937E-07 Note: One successful gmin step
Trying gmin =   1.7077E-07 Note: One successful gmin step
Trying gmin =   3.3152E-08 Warning: Further gmin increment
Trying gmin =   1.1336E-07 Warning: Further gmin increment
Trying gmin =   1.5414E-07 Note: One successful gmin step
Trying gmin =   1.3219E-07 Note: One successful gmin step
Trying gmin =   1.1336E-07 Note: One successful gmin step
Trying gmin =   9.0018E-08 Note: One successful gmin step
Trying gmin =   6.3703E-08 Note: One successful gmin step
Trying gmin =   3.7923E-08 Note: One successful gmin step
Trying gmin =   1.7419E-08 Note: One successful gmin step
Trying gmin =   5.4226E-09 Note: One successful gmin step
Trying gmin =   9.4183E-10 Note: One successful gmin step
Trying gmin =   9.4183E-11 Note: One successful gmin step
Trying gmin =   9.4183E-12 Note: One successful gmin step
Trying gmin =   1.0000E-12 Note: One successful gmin step
Note: True gmin stepping completed
 Reference value :  2.80000e+00Note: Starting true gmin stepping
Trying gmin =   1.0000E-03 Note: One successful gmin step
Trying gmin =   1.0000E-04 Note: One successful gmin step
Trying gmin =   1.0000E-05 Note: One successful gmin step
Trying gmin =   1.0000E-06 Note: One successful gmin step
Trying gmin =   1.0000E-07 Note: One successful gmin step
Trying gmin =   1.0000E-08 Note: One successful gmin step
Trying gmin =   3.1623E-09 Note: One successful gmin step
Trying gmin =   5.6234E-10 Note: One successful gmin step
Trying gmin =   5.6234E-11 Warning: Further gmin increment
Trying gmin =   3.1623E-10 Note: One successful gmin step
Trying gmin =   1.3335E-10 Note: One successful gmin step
Trying gmin =   3.6517E-11 Note: One successful gmin step
Trying gmin =   1.0000E-11 Note: One successful gmin step
Trying gmin =   1.4330E-12 Note: One successful gmin step
Trying gmin =   1.0000E-12 Note: One successful gmin step
Note: True gmin stepping completed
Note: Starting true gmin stepping
Trying gmin =   1.0000E-03 Note: One successful gmin step
Trying gmin =   1.0000E-04 Note: One successful gmin step
Trying gmin =   1.0000E-05 Note: One successful gmin step
Trying gmin =   1.0000E-06 Note: One successful gmin step
Trying gmin =   1.0000E-07 Note: One successful gmin step
Trying gmin =   1.0000E-08 Note: One successful gmin step
Trying gmin =   3.1623E-09 Note: One successful gmin step
Trying gmin =   5.6234E-10 Note: One successful gmin step
Trying gmin =   5.6234E-11 Note: One successful gmin step
Trying gmin =   1.7783E-11 Note: One successful gmin step
Trying gmin =   3.1623E-12 Warning: Further gmin increment
Trying gmin =   1.1548E-11 Warning: Further gmin increment
Trying gmin =   1.5963E-11 Note: One successful gmin step
Trying gmin =   1.3577E-11 Note: One successful gmin step
Trying gmin =   1.0650E-11 Warning: Further gmin increment
Trying gmin =   1.2777E-11 Note: One successful gmin step
Trying gmin =   1.2025E-11 Note: One successful gmin step
Trying gmin =   1.0978E-11 Note: One successful gmin step
Trying gmin =   9.5764E-12 Note: One successful gmin step
Trying gmin =   7.8021E-12 Note: One successful gmin step
Trying gmin =   5.7376E-12 Note: One successful gmin step
Trying gmin =   3.6183E-12 Note: One successful gmin step
Trying gmin =   1.8120E-12 Note: One successful gmin step
Trying gmin =   1.0000E-12 Note: One successful gmin step
Note: True gmin stepping completed
 Reference value :  1.14000e+00pm                  =  2.654021e+01
Doing analysis at TEMP = 27.000000 and TNOM = 27.000000


No. of Data Rows : 91
psrr100             =  -8.700428e+01
psrr100k            =  -2.715514e+01
Doing analysis at TEMP = 27.000000 and TNOM = 27.000000


No. of Data Rows : 86
temp_coeff = 1.731490e+02
Doing analysis at TEMP = 27.000000 and TNOM = 27.000000


No. of Data Rows : 141
vldo_sup_2          =  1.799150e+00
vldo_sup_2_8        =  1.799250e+00
line_reg = 1.250000e-04
Note: No ".plot", ".print", or ".fourier" lines; no simulations run
vin                 =  1.901644e+00
dropout = 1.376440e-01
