 Reference value :  0.00000e+00
No compatibility mode selected!


Circuit: * ldo netlist 

Doing analysis at TEMP = 85.000000 and TNOM = 27.000000


No. of Data Rows : 1
bg_out = 1.203662e+00
inn = 1.154190e+00
inp = 1.154128e+00
l1#branch = 0.000000e+00
ldo_out = 1.811112e+00
m.xm1.msky130_fd_pr__nfet_g5v0d10v5#body = 2.719292e-11
m.xm1.msky130_fd_pr__nfet_g5v0d10v5#dbody = 5.114267e-11
m.xm1.msky130_fd_pr__nfet_g5v0d10v5#sbody = 3.043608e-11
m.xm2.msky130_fd_pr__pfet_g5v0d10v5#body = 2.300000e+00
m.xm2.msky130_fd_pr__pfet_g5v0d10v5#dbody = 2.300000e+00
m.xm2.msky130_fd_pr__pfet_g5v0d10v5#sbody = 2.300000e+00
m.xm3.msky130_fd_pr__pfet_g5v0d10v5#body = 2.300000e+00
m.xm3.msky130_fd_pr__pfet_g5v0d10v5#dbody = 2.300000e+00
m.xm3.msky130_fd_pr__pfet_g5v0d10v5#sbody = 2.300000e+00
m.xm4.msky130_fd_pr__pfet_g5v0d10v5#body = 2.300000e+00
m.xm4.msky130_fd_pr__pfet_g5v0d10v5#dbody = 2.300000e+00
m.xm4.msky130_fd_pr__pfet_g5v0d10v5#sbody = 2.300000e+00
m.xm5.msky130_fd_pr__pfet_g5v0d10v5#body = 2.300000e+00
m.xm5.msky130_fd_pr__pfet_g5v0d10v5#dbody = 2.300000e+00
m.xm5.msky130_fd_pr__pfet_g5v0d10v5#sbody = 2.300000e+00
m.xm6.msky130_fd_pr__nfet_g5v0d10v5#body = 2.031045e-11
m.xm6.msky130_fd_pr__nfet_g5v0d10v5#dbody = 5.077600e-11
m.xm6.msky130_fd_pr__nfet_g5v0d10v5#sbody = 1.015534e-11
m.xm7.msky130_fd_pr__pfet_g5v0d10v5#body = 2.300000e+00
m.xm7.msky130_fd_pr__pfet_g5v0d10v5#dbody = 2.300000e+00
m.xm7.msky130_fd_pr__pfet_g5v0d10v5#sbody = 2.300000e+00
m.xm8.msky130_fd_pr__pfet_g5v0d10v5#body = 2.300000e+00
m.xm8.msky130_fd_pr__pfet_g5v0d10v5#dbody = 2.300000e+00
m.xm8.msky130_fd_pr__pfet_g5v0d10v5#sbody = 2.300000e+00
m.xm9.msky130_fd_pr__nfet_g5v0d10v5#body = 2.541408e-11
m.xm9.msky130_fd_pr__nfet_g5v0d10v5#dbody = 4.956879e-11
m.xm9.msky130_fd_pr__nfet_g5v0d10v5#sbody = 2.667347e-11
m.xm10.msky130_fd_pr__nfet_g5v0d10v5#body = 2.514121e-11
m.xm10.msky130_fd_pr__nfet_g5v0d10v5#dbody = 4.888660e-11
m.xm10.msky130_fd_pr__nfet_g5v0d10v5#sbody = 2.653703e-11
m.xm11.msky130_fd_pr__pfet_g5v0d10v5#body = 2.300000e+00
m.xm11.msky130_fd_pr__pfet_g5v0d10v5#dbody = 2.300000e+00
m.xm11.msky130_fd_pr__pfet_g5v0d10v5#sbody = 2.300000e+00
m.xm12.msky130_fd_pr__pfet_g5v0d10v5#body = 2.300000e+00
m.xm12.msky130_fd_pr__pfet_g5v0d10v5#dbody = 2.300000e+00
m.xm12.msky130_fd_pr__pfet_g5v0d10v5#sbody = 2.300000e+00
m.xm13.msky130_fd_pr__nfet_g5v0d10v5#body = 5.336011e-12
m.xm13.msky130_fd_pr__nfet_g5v0d10v5#dbody = 1.333996e-11
m.xm13.msky130_fd_pr__nfet_g5v0d10v5#sbody = 2.668073e-12
m.xm14.msky130_fd_pr__pfet_g5v0d10v5#body = 2.300000e+00
m.xm14.msky130_fd_pr__pfet_g5v0d10v5#dbody = 2.300000e+00
m.xm14.msky130_fd_pr__pfet_g5v0d10v5#sbody = 2.300000e+00
m.xm15.msky130_fd_pr__nfet_g5v0d10v5#body = 9.370465e-15
m.xm15.msky130_fd_pr__nfet_g5v0d10v5#dbody = 2.342573e-14
m.xm15.msky130_fd_pr__nfet_g5v0d10v5#sbody = 4.685661e-15
m.xm16.msky130_fd_pr__nfet_g5v0d10v5#body = 5.378370e-11
m.xm16.msky130_fd_pr__nfet_g5v0d10v5#dbody = 9.499817e-11
m.xm16.msky130_fd_pr__nfet_g5v0d10v5#sbody = 6.635292e-11
m.xm17.msky130_fd_pr__pfet_g5v0d10v5#body = 2.300000e+00
m.xm17.msky130_fd_pr__pfet_g5v0d10v5#dbody = 2.300000e+00
m.xm17.msky130_fd_pr__pfet_g5v0d10v5#sbody = 2.300000e+00
m.xm18.msky130_fd_pr__nfet_g5v0d10v5#body = 2.148808e-11
m.xm18.msky130_fd_pr__nfet_g5v0d10v5#dbody = 5.369072e-11
m.xm18.msky130_fd_pr__nfet_g5v0d10v5#sbody = 1.074412e-11
m.xm19.msky130_fd_pr__nfet_g5v0d10v5#body = 2.727806e-11
m.xm19.msky130_fd_pr__nfet_g5v0d10v5#dbody = 5.135552e-11
m.xm19.msky130_fd_pr__nfet_g5v0d10v5#sbody = 3.047865e-11
m.xm20.msky130_fd_pr__nfet_g5v0d10v5#body = 1.431130e-11
m.xm20.msky130_fd_pr__nfet_g5v0d10v5#dbody = 3.577818e-11
m.xm20.msky130_fd_pr__nfet_g5v0d10v5#sbody = 7.155728e-12
m.xm22.msky130_fd_pr__nfet_g5v0d10v5#body = 1.171360e-11
m.xm22.msky130_fd_pr__nfet_g5v0d10v5#dbody = 2.928388e-11
m.xm22.msky130_fd_pr__nfet_g5v0d10v5#sbody = 5.856906e-12
m.xm24.msky130_fd_pr__pfet_g5v0d10v5#body = 2.300000e+00
m.xm24.msky130_fd_pr__pfet_g5v0d10v5#dbody = 2.300000e+00
m.xm24.msky130_fd_pr__pfet_g5v0d10v5#sbody = 2.300000e+00
m.xm26.msky130_fd_pr__pfet_g5v0d10v5#body = 2.300000e+00
m.xm26.msky130_fd_pr__pfet_g5v0d10v5#dbody = 2.300000e+00
m.xm26.msky130_fd_pr__pfet_g5v0d10v5#sbody = 2.300000e+00
mir = 1.077595e+00
net1 = 6.368579e-01
net2 = 1.806215e-05
net3 = 7.099332e-01
net4 = 2.495649e-01
net5 = 1.084407e+00
net6 = 9.369345e-01
net7 = 7.098697e-01
net8 = 1.160209e+00
net9 = 1.182039e+00
net10 = 2.663228e-01
net11 = 1.557259e+00
net12 = 1.557259e+00
net13 = 0.000000e+00
out = 1.557259e+00
pos = 1.203914e+00
q.xq2.qsky130_fd_pr__pnp_05v5_w0p68l0p68#collcx = 2.805943e-03
q.xq3.qsky130_fd_pr__pnp_05v5_w0p68l0p68#collcx = 3.569485e-04
q.xq4.qsky130_fd_pr__pnp_05v5_w0p68l0p68#collcx = 3.569485e-04
q.xq8.qsky130_fd_pr__pnp_05v5_w0p68l0p68#collcx = 3.569485e-04
q.xq10.qsky130_fd_pr__pnp_05v5_w0p68l0p68#collcx = 3.569485e-04
q.xq12.qsky130_fd_pr__pnp_05v5_w0p68l0p68#collcx = 3.569485e-04
q.xq14.qsky130_fd_pr__pnp_05v5_w0p68l0p68#collcx = 3.569485e-04
q.xq16.qsky130_fd_pr__pnp_05v5_w0p68l0p68#collcx = 3.569485e-04
q.xq18.qsky130_fd_pr__pnp_05v5_w0p68l0p68#collcx = 3.569485e-04
vb = 9.842924e-01
vdd = 2.300000e+00
vs#branch = -1.88075e-04
vt#branch = 0.000000e+00
xc1.a = 0.000000e+00
xc1.b1 = 0.000000e+00
xc3.a = 1.557259e+00
xc3.b1 = 1.557259e+00
xr1.xsky130_fd_pr__res_xhigh_po_0p69.ra = 7.157012e-01
xr2.xsky130_fd_pr__res_xhigh_po_0p69.ra = 7.157646e-01
xr3.xsky130_fd_pr__res_xhigh_po_0p69.ra = 3.502281e-03
xr4.xsky130_fd_pr__res_xhigh_po_0p69.ra = 6.392218e-01
xr5.xsky130_fd_pr__res_xhigh_po_0p69.ra = 3.501949e-03
xr6.xsky130_fd_pr__res_xhigh_po_0p69.ra = 6.179170e-03
xr7.xsky130_fd_pr__res_xhigh_po_0p69.ra = 1.557259e+00
xr8.xsky130_fd_pr__res_xhigh_po_0p69.ra = 1.214185e+00
xr9.xsky130_fd_pr__res_xhigh_po_0p69.ra = 1.077454e-02
Doing analysis at TEMP = 85.000000 and TNOM = 27.000000


No. of Data Rows : 91
Note: Starting true gmin stepping
Trying gmin =   1.0000E-03 Note: One successful gmin step
Trying gmin =   1.0000E-04 Note: One successful gmin step
Trying gmin =   1.0000E-05 Note: One successful gmin step
Trying gmin =   1.0000E-06 Note: One successful gmin step
Trying gmin =   1.0000E-07 Note: One successful gmin step
Trying gmin =   1.0000E-08 Error: -1.37991e+164, 2 out of range for ^
Warning: Further gmin increment
Trying gmin =   5.6234E-08 Warning: Further gmin increment
Trying gmin =   8.6596E-08 Warning: Further gmin increment
Trying gmin =   9.6466E-08 Note: One successful gmin step
Trying gmin =   9.1398E-08 Note: One successful gmin step
Trying gmin =   8.4291E-08 Warning: Further gmin increment
Trying gmin =   8.9567E-08 Note: One successful gmin step
Trying gmin =   8.6889E-08 Warning: Further gmin increment
Trying gmin =   8.8890E-08 Warning: Further gmin increment
Trying gmin =   8.9397E-08 Note: One successful gmin step
Trying gmin =   8.9143E-08 Note: One successful gmin step
Trying gmin =   8.8764E-08 Warning: Further gmin increment
Trying gmin =   8.9048E-08 Note: One successful gmin step
Trying gmin =   8.8906E-08 Warning: Further gmin increment
Trying gmin =   8.9013E-08 Warning: Further gmin increment
Trying gmin =   8.9039E-08 Note: One successful gmin step
Trying gmin =   8.9026E-08 Warning: Further gmin increment
Trying gmin =   8.9036E-08 Note: One successful gmin step
Trying gmin =   8.9031E-08 Warning: Further gmin increment
Trying gmin =   8.9035E-08 Note: One successful gmin step
Trying gmin =   8.9033E-08 Note: One successful gmin step
Trying gmin =   8.9030E-08 Warning: Last gmin step failed
Warning: True gmin stepping failed
Note: Starting dynamic gmin stepping
Trying gmin =   1.0000E-03 Note: One successful gmin step
Trying gmin =   1.0000E-04 Note: One successful gmin step
Trying gmin =   1.0000E-05 Warning: Further gmin increment
Trying gmin =   5.6234E-05 Note: One successful gmin step
Trying gmin =   2.3714E-05 Note: One successful gmin step
Trying gmin =   6.4938E-06 Warning: Further gmin increment
Trying gmin =   1.7154E-05 Note: One successful gmin step
Trying gmin =   1.0554E-05 Warning: Further gmin increment
Trying gmin =   1.5193E-05 Note: One successful gmin step
Trying gmin =   1.2663E-05 Warning: Further gmin increment
Trying gmin =   1.4517E-05 Note: One successful gmin step
Trying gmin =   1.3558E-05 Note: One successful gmin step
Trying gmin =   1.2238E-05 Warning: Further gmin increment
Trying gmin =   1.3215E-05 Note: One successful gmin step
Trying gmin =   1.2717E-05 Note: One successful gmin step
Trying gmin =   1.2005E-05 Note: One successful gmin step
Trying gmin =   1.1011E-05 Note: One successful gmin step
Trying gmin =   9.6718E-06 Note: One successful gmin step
Trying gmin =   7.9623E-06 Note: One successful gmin step
Trying gmin =   5.9475E-06 Note: One successful gmin step
Trying gmin =   3.8395E-06 Note: One successful gmin step
Trying gmin =   1.9915E-06 Note: One successful gmin step
Trying gmin =   7.4397E-07 Note: One successful gmin step
Trying gmin =   1.6987E-07 Warning: Further gmin increment
Trying gmin =   5.1428E-07 Note: One successful gmin step
Trying gmin =   2.9557E-07 Warning: Further gmin increment
Trying gmin =   4.4778E-07 Note: One successful gmin step
Trying gmin =   3.6380E-07 Warning: Further gmin increment
Trying gmin =   4.2512E-07 Note: One successful gmin step
Trying gmin =   3.9326E-07 Warning: Further gmin increment
Trying gmin =   4.1692E-07 Warning: Further gmin increment
Trying gmin =   4.2305E-07 Note: One successful gmin step
Trying gmin =   4.1998E-07 Note: One successful gmin step
Trying gmin =   4.1540E-07 Warning: Further gmin increment
Trying gmin =   4.1883E-07 Note: One successful gmin step
Trying gmin =   4.1711E-07 Warning: Further gmin increment
Trying gmin =   4.1840E-07 Note: One successful gmin step
Trying gmin =   4.1775E-07 Note: One successful gmin step
Trying gmin =   4.1679E-07 Warning: Further gmin increment
Trying gmin =   4.1751E-07 Note: One successful gmin step
Trying gmin =   4.1715E-07 Warning: Further gmin increment
Trying gmin =   4.1742E-07 Warning: Further gmin increment
Trying gmin =   4.1749E-07 Note: One successful gmin step
Trying gmin =   4.1746E-07 Note: One successful gmin step
Trying gmin =   4.1740E-07 Warning: Further gmin increment
Trying gmin =   4.1744E-07 Note: One successful gmin step
Trying gmin =   4.1742E-07 Warning: Last gmin step failed
Warning: Dynamic gmin stepping failed
Note: Starting source stepping
Supplies reduced to   0.0000% Note: One successful source step
Supplies reduced to   0.1000% Note: One successful source step
Supplies reduced to   0.2000% Note: One successful source step
Supplies reduced to   0.3500% Note: One successful source step
Supplies reduced to   0.5750% Note: One successful source step
Supplies reduced to   0.9125% Note: One successful source step
Supplies reduced to   1.4188% Note: One successful source step
Supplies reduced to   2.1781% Note: One successful source step
Supplies reduced to   3.3172% Note: One successful source step
Supplies reduced to   5.0258% Note: One successful source step
Supplies reduced to   7.5887% Note: One successful source step
Supplies reduced to  11.4330% Note: One successful source step
Supplies reduced to  17.1995% Note: One successful source step
Supplies reduced to  25.8493% Supplies reduced to  17.1995% Note: One successful source step
Supplies reduced to  18.1995% Note: One successful source step
Supplies reduced to  19.6995% Note: One successful source step
Supplies reduced to  21.9495% Note: One successful source step
Supplies reduced to  25.3245% Supplies reduced to  21.9495% Note: One successful source step
Supplies reduced to  22.2870% Note: One successful source step
Supplies reduced to  22.7933% Note: One successful source step
Supplies reduced to  23.5526% Note: One successful source step
Supplies reduced to  23.9323% Note: One successful source step
Supplies reduced to  24.5019% Note: One successful source step
Supplies reduced to  25.3562% Note: One successful source step
Supplies reduced to  26.6376% Note: One successful source step
Supplies reduced to  28.5598% Note: One successful source step
Supplies reduced to  31.4430% Note: One successful source step
Supplies reduced to  35.7679% Note: One successful source step
Supplies reduced to  42.2552% Note: One successful source step
Supplies reduced to  51.9862% Note: One successful source step
Supplies reduced to  66.5827% Supplies reduced to  51.9862% Note: One successful source step
Supplies reduced to  52.9862% Note: One successful source step
Supplies reduced to  54.4862% Note: One successful source step
Supplies reduced to  56.7362% Note: One successful source step
Supplies reduced to  60.1112% Note: One successful source step
Supplies reduced to  65.1737% Supplies reduced to  60.1112% Note: One successful source step
Supplies reduced to  60.8706% Note: One successful source step
Supplies reduced to  62.0096% Note: One successful source step
Supplies reduced to  63.7182% Supplies reduced to  62.0096% Note: One successful source step
Supplies reduced to  62.2659% Note: One successful source step
Supplies reduced to  62.6503% Note: One successful source step
Supplies reduced to  63.2270% Note: One successful source step
Supplies reduced to  64.0920% Supplies reduced to  63.2270% Note: One successful source step
Supplies reduced to  63.3567% Note: One successful source step
Supplies reduced to  63.5514% Note: One successful source step
Supplies reduced to  63.8433% Supplies reduced to  63.5514% Note: One successful source step
Supplies reduced to  63.5952% Note: One successful source step
Supplies reduced to  63.6608% Note: One successful source step
Supplies reduced to  63.7594% Supplies reduced to  63.6608% Note: One successful source step
Supplies reduced to  63.6756% Note: One successful source step
Supplies reduced to  63.6978% Note: One successful source step
Supplies reduced to  63.7310% Supplies reduced to  63.6978% Note: One successful source step
Supplies reduced to  63.7028% Note: One successful source step
Supplies reduced to  63.7103% Note: One successful source step
Supplies reduced to  63.7215% Supplies reduced to  63.7103% Note: One successful source step
Supplies reduced to  63.7119% Note: One successful source step
Supplies reduced to  63.7145% Note: One successful source step
Supplies reduced to  63.7183% Supplies reduced to  63.7145% Note: One successful source step
Supplies reduced to  63.7150% Note: One successful source step
Supplies reduced to  63.7159% Note: One successful source step
Supplies reduced to  63.7172% Supplies reduced to  63.7159% Note: One successful source step
Supplies reduced to  63.7161% Note: One successful source step
Supplies reduced to  63.7164% Supplies reduced to  63.7161% Note: One successful source step
Supplies reduced to  63.7161% Note: One successful source step
Supplies reduced to  63.7162% Note: One successful source step
Supplies reduced to  63.7163% Supplies reduced to  63.7162% Note: One successful source step
Supplies reduced to  63.7162% Warning: source stepping failed
doAnalyses: Too many iterations without convergence

dc simulation(s) aborted
Error(parse.c--checkvalid): vldo_sup_2_8: zero length vector.
Error: RHS "abs((vldo_sup_2_8-vldo_sup_2)/0.8)" invalid
Error(parse.c--checkvalid): line_reg: zero length vector.
Error(parse.c--checkvalid): vin: zero length vector.
Error: RHS "vin-1.764" invalid
Error(parse.c--checkvalid): dropout: zero length vector.
Error: no such vector dropout
Note: No ".plot", ".print", or ".fourier" lines; no simulations run
pm                  =  5.644860e+01
Doing analysis at TEMP = 85.000000 and TNOM = 27.000000


No. of Data Rows : 91
psrr100             =  -5.021180e+01
psrr100k            =  -2.536507e+01
Doing analysis at TEMP = 85.000000 and TNOM = 27.000000


No. of Data Rows : 86
temp_coeff = 1.464336e+02
Doing analysis at TEMP = 85.000000 and TNOM = 27.000000


Error: measure  vldo_sup_2  (AT) : out of interval
 meas dc vldo_sup_2 find ldo_out at=2 failed!


Error: measure  vldo_sup_2_8  (AT) : out of interval
 meas dc vldo_sup_2_8 find ldo_out at=2.8 failed!


Error: measure  vin  (WHEN) : out of interval
 meas dc vin when v(ldo_out)=1.764 failed!

