 Reference value :  0.00000e+00
No compatibility mode selected!


Circuit: * ldo netlist 

Doing analysis at TEMP = 27.000000 and TNOM = 27.000000


No. of Data Rows : 1
bg_out = 1.095945e+00
inn = 1.139591e+00
inp = 1.139559e+00
l1#branch = 0.000000e+00
ldo_out = 1.800969e+00
m.xm1.msky130_fd_pr__nfet_g5v0d10v5#body = 1.580909e-11
m.xm1.msky130_fd_pr__nfet_g5v0d10v5#dbody = 3.259646e-11
m.xm1.msky130_fd_pr__nfet_g5v0d10v5#sbody = 1.483081e-11
m.xm2.msky130_fd_pr__pfet_g5v0d10v5#body = 2.300000e+00
m.xm2.msky130_fd_pr__pfet_g5v0d10v5#dbody = 2.300000e+00
m.xm2.msky130_fd_pr__pfet_g5v0d10v5#sbody = 2.300000e+00
m.xm3.msky130_fd_pr__pfet_g5v0d10v5#body = 2.300000e+00
m.xm3.msky130_fd_pr__pfet_g5v0d10v5#dbody = 2.300000e+00
m.xm3.msky130_fd_pr__pfet_g5v0d10v5#sbody = 2.300000e+00
m.xm4.msky130_fd_pr__pfet_g5v0d10v5#body = 2.300000e+00
m.xm4.msky130_fd_pr__pfet_g5v0d10v5#dbody = 2.300000e+00
m.xm4.msky130_fd_pr__pfet_g5v0d10v5#sbody = 2.300000e+00
m.xm5.msky130_fd_pr__pfet_g5v0d10v5#body = 2.300000e+00
m.xm5.msky130_fd_pr__pfet_g5v0d10v5#dbody = 2.300000e+00
m.xm5.msky130_fd_pr__pfet_g5v0d10v5#sbody = 2.300000e+00
m.xm6.msky130_fd_pr__nfet_g5v0d10v5#body = 1.110249e-11
m.xm6.msky130_fd_pr__nfet_g5v0d10v5#dbody = 2.775622e-11
m.xm6.msky130_fd_pr__nfet_g5v0d10v5#sbody = 5.551251e-12
m.xm7.msky130_fd_pr__pfet_g5v0d10v5#body = 2.300000e+00
m.xm7.msky130_fd_pr__pfet_g5v0d10v5#dbody = 2.300000e+00
m.xm7.msky130_fd_pr__pfet_g5v0d10v5#sbody = 2.300000e+00
m.xm8.msky130_fd_pr__pfet_g5v0d10v5#body = 2.300000e+00
m.xm8.msky130_fd_pr__pfet_g5v0d10v5#dbody = 2.300000e+00
m.xm8.msky130_fd_pr__pfet_g5v0d10v5#sbody = 2.300000e+00
m.xm9.msky130_fd_pr__nfet_g5v0d10v5#body = 1.641831e-11
m.xm9.msky130_fd_pr__nfet_g5v0d10v5#dbody = 3.520372e-11
m.xm9.msky130_fd_pr__nfet_g5v0d10v5#sbody = 1.405121e-11
m.xm10.msky130_fd_pr__nfet_g5v0d10v5#body = 1.617185e-11
m.xm10.msky130_fd_pr__nfet_g5v0d10v5#dbody = 3.458757e-11
m.xm10.msky130_fd_pr__nfet_g5v0d10v5#sbody = 1.392798e-11
m.xm11.msky130_fd_pr__pfet_g5v0d10v5#body = 2.300000e+00
m.xm11.msky130_fd_pr__pfet_g5v0d10v5#dbody = 2.300000e+00
m.xm11.msky130_fd_pr__pfet_g5v0d10v5#sbody = 2.300000e+00
m.xm12.msky130_fd_pr__pfet_g5v0d10v5#body = 2.300000e+00
m.xm12.msky130_fd_pr__pfet_g5v0d10v5#dbody = 2.300000e+00
m.xm12.msky130_fd_pr__pfet_g5v0d10v5#sbody = 2.300000e+00
m.xm13.msky130_fd_pr__nfet_g5v0d10v5#body = 2.919671e-12
m.xm13.msky130_fd_pr__nfet_g5v0d10v5#dbody = 7.299167e-12
m.xm13.msky130_fd_pr__nfet_g5v0d10v5#sbody = 1.459846e-12
m.xm14.msky130_fd_pr__pfet_g5v0d10v5#body = 2.300000e+00
m.xm14.msky130_fd_pr__pfet_g5v0d10v5#dbody = 2.300000e+00
m.xm14.msky130_fd_pr__pfet_g5v0d10v5#sbody = 2.300000e+00
m.xm15.msky130_fd_pr__nfet_g5v0d10v5#body = 1.431861e-16
m.xm15.msky130_fd_pr__nfet_g5v0d10v5#dbody = 3.579543e-16
m.xm15.msky130_fd_pr__nfet_g5v0d10v5#sbody = 7.160411e-17
m.xm16.msky130_fd_pr__nfet_g5v0d10v5#body = 4.300352e-11
m.xm16.msky130_fd_pr__nfet_g5v0d10v5#dbody = 7.901039e-11
m.xm16.msky130_fd_pr__nfet_g5v0d10v5#sbody = 5.000016e-11
m.xm17.msky130_fd_pr__pfet_g5v0d10v5#body = 2.300000e+00
m.xm17.msky130_fd_pr__pfet_g5v0d10v5#dbody = 2.300000e+00
m.xm17.msky130_fd_pr__pfet_g5v0d10v5#sbody = 2.300000e+00
m.xm18.msky130_fd_pr__nfet_g5v0d10v5#body = 1.747389e-11
m.xm18.msky130_fd_pr__nfet_g5v0d10v5#dbody = 4.368261e-11
m.xm18.msky130_fd_pr__nfet_g5v0d10v5#sbody = 8.736955e-12
m.xm19.msky130_fd_pr__nfet_g5v0d10v5#body = 1.585562e-11
m.xm19.msky130_fd_pr__nfet_g5v0d10v5#dbody = 3.271280e-11
m.xm19.msky130_fd_pr__nfet_g5v0d10v5#sbody = 1.485408e-11
m.xm20.msky130_fd_pr__nfet_g5v0d10v5#body = 1.101911e-11
m.xm20.msky130_fd_pr__nfet_g5v0d10v5#dbody = 2.754776e-11
m.xm20.msky130_fd_pr__nfet_g5v0d10v5#sbody = 5.509567e-12
m.xm22.msky130_fd_pr__nfet_g5v0d10v5#body = 3.465846e-12
m.xm22.msky130_fd_pr__nfet_g5v0d10v5#dbody = 8.664610e-12
m.xm22.msky130_fd_pr__nfet_g5v0d10v5#sbody = 1.732928e-12
m.xm24.msky130_fd_pr__pfet_g5v0d10v5#body = 2.300000e+00
m.xm24.msky130_fd_pr__pfet_g5v0d10v5#dbody = 2.300000e+00
m.xm24.msky130_fd_pr__pfet_g5v0d10v5#sbody = 2.300000e+00
m.xm26.msky130_fd_pr__pfet_g5v0d10v5#body = 2.300000e+00
m.xm26.msky130_fd_pr__pfet_g5v0d10v5#dbody = 2.300000e+00
m.xm26.msky130_fd_pr__pfet_g5v0d10v5#sbody = 2.300000e+00
mir = 9.873313e-01
net1 = 7.251271e-01
net2 = 1.101800e-05
net3 = 7.846754e-01
net4 = 2.767054e-01
net5 = 9.910542e-01
net6 = 8.876369e-01
net7 = 7.846424e-01
net8 = 1.059829e+00
net9 = 1.079546e+00
net10 = 2.334456e-01
net11 = 1.397699e+00
net12 = 1.397699e+00
net13 = 0.000000e+00
out = 1.397699e+00
pos = 1.096143e+00
q.xq2.qsky130_fd_pr__pnp_05v5_w0p68l0p68#collcx = 2.093627e-03
q.xq3.qsky130_fd_pr__pnp_05v5_w0p68l0p68#collcx = 2.636455e-04
q.xq4.qsky130_fd_pr__pnp_05v5_w0p68l0p68#collcx = 2.636455e-04
q.xq8.qsky130_fd_pr__pnp_05v5_w0p68l0p68#collcx = 2.636455e-04
q.xq10.qsky130_fd_pr__pnp_05v5_w0p68l0p68#collcx = 2.636455e-04
q.xq12.qsky130_fd_pr__pnp_05v5_w0p68l0p68#collcx = 2.636455e-04
q.xq14.qsky130_fd_pr__pnp_05v5_w0p68l0p68#collcx = 2.636455e-04
q.xq16.qsky130_fd_pr__pnp_05v5_w0p68l0p68#collcx = 2.636455e-04
q.xq18.qsky130_fd_pr__pnp_05v5_w0p68l0p68#collcx = 2.636455e-04
vb = 8.814005e-01
vdd = 2.300000e+00
vs#branch = -1.72939e-04
vt#branch = 0.000000e+00
xc1.a = 0.000000e+00
xc1.b1 = 0.000000e+00
xc3.a = 1.397699e+00
xc3.b1 = 1.397699e+00
xr1.xsky130_fd_pr__res_xhigh_po_0p69.ra = 7.923960e-01
xr2.xsky130_fd_pr__res_xhigh_po_0p69.ra = 7.924290e-01
xr3.xsky130_fd_pr__res_xhigh_po_0p69.ra = 5.363154e-03
xr4.xsky130_fd_pr__res_xhigh_po_0p69.ra = 7.276642e-01
xr5.xsky130_fd_pr__res_xhigh_po_0p69.ra = 5.362913e-03
xr6.xsky130_fd_pr__res_xhigh_po_0p69.ra = 8.229236e-03
xr7.xsky130_fd_pr__res_xhigh_po_0p69.ra = 1.397699e+00
xr8.xsky130_fd_pr__res_xhigh_po_0p69.ra = 1.108652e+00
xr9.xsky130_fd_pr__res_xhigh_po_0p69.ra = 1.291368e-02
Doing analysis at TEMP = 27.000000 and TNOM = 27.000000


No. of Data Rows : 91
Note: Starting true gmin stepping
Trying gmin =   1.0000E-03 Note: One successful gmin step
Trying gmin =   1.0000E-04 Note: One successful gmin step
Trying gmin =   1.0000E-05 Note: One successful gmin step
Trying gmin =   1.0000E-06 Note: One successful gmin step
Trying gmin =   1.0000E-07 Note: One successful gmin step
Trying gmin =   1.0000E-08 Warning: Further gmin increment
Trying gmin =   5.6234E-08 Note: One successful gmin step
Trying gmin =   3.1623E-08 Note: One successful gmin step
Trying gmin =   1.7783E-08 Note: One successful gmin step
Trying gmin =   7.4989E-09 Note: One successful gmin step
Trying gmin =   2.0535E-09 Note: One successful gmin step
Trying gmin =   2.9427E-10 Note: One successful gmin step
Trying gmin =   2.9427E-11 Note: One successful gmin step
Trying gmin =   2.9427E-12 Note: One successful gmin step
Trying gmin =   1.0000E-12 Note: One successful gmin step
Note: True gmin stepping completed
 Reference value :  1.50000e+00Note: Starting true gmin stepping
Trying gmin =   1.0000E-03 Note: One successful gmin step
Trying gmin =   1.0000E-04 Note: One successful gmin step
Trying gmin =   1.0000E-05 Note: One successful gmin step
Trying gmin =   1.0000E-06 Note: One successful gmin step
Trying gmin =   1.0000E-07 Note: One successful gmin step
Trying gmin =   1.0000E-08 Warning: Further gmin increment
Trying gmin =   5.6234E-08 Note: One successful gmin step
Trying gmin =   3.1623E-08 Warning: Further gmin increment
Trying gmin =   4.8697E-08 Note: One successful gmin step
Trying gmin =   3.9242E-08 Note: One successful gmin step
Trying gmin =   2.8387E-08 Note: One successful gmin step
Trying gmin =   1.7466E-08 Note: One successful gmin step
Trying gmin =   8.4291E-09 Note: One successful gmin step
Trying gmin =   2.8260E-09 Note: One successful gmin step
Trying gmin =   5.4860E-10 Note: One successful gmin step
Trying gmin =   5.4860E-11 Note: One successful gmin step
Trying gmin =   5.4860E-12 Note: One successful gmin step
Trying gmin =   1.0000E-12 Note: One successful gmin step
Note: True gmin stepping completed
pm                  =  6.231898e+01
Doing analysis at TEMP = 27.000000 and TNOM = 27.000000


No. of Data Rows : 91
psrr100             =  -7.413111e+01
psrr100k            =  -2.801121e+01
Doing analysis at TEMP = 27.000000 and TNOM = 27.000000


No. of Data Rows : 86
temp_coeff = 2.693635e+01
Doing analysis at TEMP = 27.000000 and TNOM = 27.000000


No. of Data Rows : 141
vldo_sup_2          =  1.800938e+00
vldo_sup_2_8        =  1.800878e+00
line_reg = 7.500000e-05
Note: No ".plot", ".print", or ".fourier" lines; no simulations run
vin                 =  1.764158e+00
dropout = 1.580000e-04
