Note: Starting true gmin stepping
Trying gmin =   1.0000E-03 Note: One successful gmin step
Trying gmin =   1.0000E-04 Note: One successful gmin step
Trying gmin =   1.0000E-05 Note: One successful gmin step
Trying gmin =   1.0000E-06 Note: One successful gmin step
Trying gmin =   1.0000E-07 Note: One successful gmin step
Trying gmin =   3.1623E-08 Note: One successful gmin step
Trying gmin =   5.6234E-09 Warning: Further gmin increment
Trying gmin =   2.0535E-08 Note: One successful gmin step
Trying gmin =   1.3335E-08 Note: One successful gmin step
Trying gmin =   6.9783E-09 Note: One successful gmin step
Trying gmin =   2.6416E-09 Note: One successful gmin step
Trying gmin =   6.1527E-10 Note: One successful gmin step
Trying gmin =   6.9158E-11 Note: One successful gmin step
Trying gmin =   6.9158E-12 Note: One successful gmin step
Trying gmin =   1.0000E-12 Note: One successful gmin step
Note: True gmin stepping completed
 Reference value :  0.00000e+00
No compatibility mode selected!


Circuit: * ldo netlist 

Doing analysis at TEMP = 85.000000 and TNOM = 27.000000


No. of Data Rows : 1
bg_out = 1.203125e+00
inn = 1.154069e+00
inp = 1.153980e+00
l1#branch = 0.000000e+00
ldo_out = 1.810215e+00
m.xm1.msky130_fd_pr__nfet_g5v0d10v5#body = 2.466167e-11
m.xm1.msky130_fd_pr__nfet_g5v0d10v5#dbody = 4.484330e-11
m.xm1.msky130_fd_pr__nfet_g5v0d10v5#sbody = 2.914171e-11
m.xm2.msky130_fd_pr__pfet_g5v0d10v5#body = 2.100000e+00
m.xm2.msky130_fd_pr__pfet_g5v0d10v5#dbody = 2.100000e+00
m.xm2.msky130_fd_pr__pfet_g5v0d10v5#sbody = 2.100000e+00
m.xm3.msky130_fd_pr__pfet_g5v0d10v5#body = 2.100000e+00
m.xm3.msky130_fd_pr__pfet_g5v0d10v5#dbody = 2.100000e+00
m.xm3.msky130_fd_pr__pfet_g5v0d10v5#sbody = 2.100000e+00
m.xm4.msky130_fd_pr__pfet_g5v0d10v5#body = 2.100000e+00
m.xm4.msky130_fd_pr__pfet_g5v0d10v5#dbody = 2.100000e+00
m.xm4.msky130_fd_pr__pfet_g5v0d10v5#sbody = 2.100000e+00
m.xm5.msky130_fd_pr__pfet_g5v0d10v5#body = 2.100000e+00
m.xm5.msky130_fd_pr__pfet_g5v0d10v5#dbody = 2.100000e+00
m.xm5.msky130_fd_pr__pfet_g5v0d10v5#sbody = 2.100000e+00
m.xm6.msky130_fd_pr__nfet_g5v0d10v5#body = 2.031126e-11
m.xm6.msky130_fd_pr__nfet_g5v0d10v5#dbody = 5.077804e-11
m.xm6.msky130_fd_pr__nfet_g5v0d10v5#sbody = 1.015574e-11
m.xm7.msky130_fd_pr__pfet_g5v0d10v5#body = 2.100000e+00
m.xm7.msky130_fd_pr__pfet_g5v0d10v5#dbody = 2.100000e+00
m.xm7.msky130_fd_pr__pfet_g5v0d10v5#sbody = 2.100000e+00
m.xm8.msky130_fd_pr__pfet_g5v0d10v5#body = 2.100000e+00
m.xm8.msky130_fd_pr__pfet_g5v0d10v5#dbody = 2.100000e+00
m.xm8.msky130_fd_pr__pfet_g5v0d10v5#sbody = 2.100000e+00
m.xm9.msky130_fd_pr__nfet_g5v0d10v5#body = 2.289621e-11
m.xm9.msky130_fd_pr__nfet_g5v0d10v5#dbody = 4.331043e-11
m.xm9.msky130_fd_pr__nfet_g5v0d10v5#sbody = 2.537818e-11
m.xm10.msky130_fd_pr__nfet_g5v0d10v5#body = 2.271348e-11
m.xm10.msky130_fd_pr__nfet_g5v0d10v5#dbody = 4.285362e-11
m.xm10.msky130_fd_pr__nfet_g5v0d10v5#sbody = 2.528682e-11
m.xm11.msky130_fd_pr__pfet_g5v0d10v5#body = 2.100000e+00
m.xm11.msky130_fd_pr__pfet_g5v0d10v5#dbody = 2.100000e+00
m.xm11.msky130_fd_pr__pfet_g5v0d10v5#sbody = 2.100000e+00
m.xm12.msky130_fd_pr__pfet_g5v0d10v5#body = 2.100000e+00
m.xm12.msky130_fd_pr__pfet_g5v0d10v5#dbody = 2.100000e+00
m.xm12.msky130_fd_pr__pfet_g5v0d10v5#sbody = 2.100000e+00
m.xm13.msky130_fd_pr__nfet_g5v0d10v5#body = 5.317864e-12
m.xm13.msky130_fd_pr__nfet_g5v0d10v5#dbody = 1.329459e-11
m.xm13.msky130_fd_pr__nfet_g5v0d10v5#sbody = 2.658999e-12
m.xm14.msky130_fd_pr__pfet_g5v0d10v5#body = 2.100000e+00
m.xm14.msky130_fd_pr__pfet_g5v0d10v5#dbody = 2.100000e+00
m.xm14.msky130_fd_pr__pfet_g5v0d10v5#sbody = 2.100000e+00
m.xm15.msky130_fd_pr__nfet_g5v0d10v5#body = 1.186728e-15
m.xm15.msky130_fd_pr__nfet_g5v0d10v5#dbody = 2.966766e-15
m.xm15.msky130_fd_pr__nfet_g5v0d10v5#sbody = 5.934183e-16
m.xm16.msky130_fd_pr__nfet_g5v0d10v5#body = 5.128219e-11
m.xm16.msky130_fd_pr__nfet_g5v0d10v5#dbody = 8.874742e-11
m.xm16.msky130_fd_pr__nfet_g5v0d10v5#sbody = 6.509916e-11
m.xm17.msky130_fd_pr__pfet_g5v0d10v5#body = 2.100000e+00
m.xm17.msky130_fd_pr__pfet_g5v0d10v5#dbody = 2.100000e+00
m.xm17.msky130_fd_pr__pfet_g5v0d10v5#sbody = 2.100000e+00
m.xm18.msky130_fd_pr__nfet_g5v0d10v5#body = 1.457543e-11
m.xm18.msky130_fd_pr__nfet_g5v0d10v5#dbody = 3.643849e-11
m.xm18.msky130_fd_pr__nfet_g5v0d10v5#sbody = 7.287791e-12
m.xm19.msky130_fd_pr__nfet_g5v0d10v5#body = 2.476368e-11
m.xm19.msky130_fd_pr__nfet_g5v0d10v5#dbody = 4.509832e-11
m.xm19.msky130_fd_pr__nfet_g5v0d10v5#sbody = 2.919271e-11
m.xm20.msky130_fd_pr__nfet_g5v0d10v5#body = 1.431195e-11
m.xm20.msky130_fd_pr__nfet_g5v0d10v5#dbody = 3.577980e-11
m.xm20.msky130_fd_pr__nfet_g5v0d10v5#sbody = 7.156052e-12
m.xm22.msky130_fd_pr__nfet_g5v0d10v5#body = 1.169916e-11
m.xm22.msky130_fd_pr__nfet_g5v0d10v5#dbody = 2.924779e-11
m.xm22.msky130_fd_pr__nfet_g5v0d10v5#sbody = 5.849687e-12
m.xm24.msky130_fd_pr__pfet_g5v0d10v5#body = 2.100000e+00
m.xm24.msky130_fd_pr__pfet_g5v0d10v5#dbody = 2.100000e+00
m.xm24.msky130_fd_pr__pfet_g5v0d10v5#sbody = 2.100000e+00
m.xm26.msky130_fd_pr__pfet_g5v0d10v5#body = 2.100000e+00
m.xm26.msky13Note: Starting true gmin stepping
Trying gmin =   1.0000E-03 Note: One successful gmin step
Trying gmin =   1.0000E-04 Note: One successful gmin step
Trying gmin =   1.0000E-05 Note: One successful gmin step
Trying gmin =   1.0000E-06 Note: One successful gmin step
Trying gmin =   1.0000E-07 Note: One successful gmin step
Trying gmin =   3.1623E-08 Note: One successful gmin step
Trying gmin =   5.6234E-09 Warning: Further gmin increment
Trying gmin =   2.0535E-08 Note: One successful gmin step
Trying gmin =   1.3335E-08 Note: One successful gmin step
Trying gmin =   6.9783E-09 Note: One successful gmin step
Trying gmin =   2.6416E-09 Note: One successful gmin step
Trying gmin =   6.1527E-10 Note: One successful gmin step
Trying gmin =   6.9158E-11 Note: One successful gmin step
Trying gmin =   6.9158E-12 Note: One successful gmin step
Trying gmin =   1.0000E-12 Note: One successful gmin step
Note: True gmin stepping completed
0_fd_pr__pfet_g5v0d10v5#dbody = 2.100000e+00
m.xm26.msky130_fd_pr__pfet_g5v0d10v5#sbody = 2.100000e+00
mir = 8.762455e-01
net1 = 6.368430e-01
net2 = 2.286962e-06
net3 = 7.099133e-01
net4 = 2.484231e-01
net5 = 8.844062e-01
net6 = 9.369997e-01
net7 = 7.098220e-01
net8 = 9.674441e-01
net9 = 9.820622e-01
net10 = 2.648733e-01
net11 = 1.005422e+00
net12 = 1.005422e+00
net13 = 0.000000e+00
out = 1.005422e+00
pos = 1.203319e+00
q.xq2.qsky130_fd_pr__pnp_05v5_w0p68l0p68#collcx = 2.804539e-03
q.xq3.qsky130_fd_pr__pnp_05v5_w0p68l0p68#collcx = 3.567882e-04
q.xq4.qsky130_fd_pr__pnp_05v5_w0p68l0p68#collcx = 3.567882e-04
q.xq8.qsky130_fd_pr__pnp_05v5_w0p68l0p68#collcx = 3.567882e-04
q.xq10.qsky130_fd_pr__pnp_05v5_w0p68l0p68#collcx = 3.567882e-04
q.xq12.qsky130_fd_pr__pnp_05v5_w0p68l0p68#collcx = 3.567882e-04
q.xq14.qsky130_fd_pr__pnp_05v5_w0p68l0p68#collcx = 3.567882e-04
q.xq16.qsky130_fd_pr__pnp_05v5_w0p68l0p68#collcx = 3.567882e-04
q.xq18.qsky130_fd_pr__pnp_05v5_w0p68l0p68#collcx = 3.567882e-04
vb = 9.843443e-01
vdd = 2.100000e+00
vs#branch = -1.01937e-02
vt#branch = 0.000000e+00
xc1.a = 0.000000e+00
xc1.b1 = 0.000000e+00
xc3.a = 1.005422e+00
xc3.b1 = 1.005422e+00
xr1.xsky130_fd_pr__res_xhigh_po_0p69.ra = 7.156521e-01
xr2.xsky130_fd_pr__res_xhigh_po_0p69.ra = 7.157434e-01
xr3.xsky130_fd_pr__res_xhigh_po_0p69.ra = 3.502177e-03
xr4.xsky130_fd_pr__res_xhigh_po_0p69.ra = 6.392059e-01
xr5.xsky130_fd_pr__res_xhigh_po_0p69.ra = 3.501700e-03
xr6.xsky130_fd_pr__res_xhigh_po_0p69.ra = 6.176167e-03
xr7.xsky130_fd_pr__res_xhigh_po_0p69.ra = 1.005422e+00
xr8.xsky130_fd_pr__res_xhigh_po_0p69.ra = 1.213584e+00
xr9.xsky130_fd_pr__res_xhigh_po_0p69.ra = 1.076873e-02
Doing analysis at TEMP = 85.000000 and TNOM = 27.000000


No. of Data Rows : 91
Note: Starting true gmin stepping
Trying gmin =   1.0000E-03 Note: One successful gmin step
Trying gmin =   1.0000E-04 Note: One successful gmin step
Trying gmin =   1.0000E-05 Note: One successful gmin step
Trying gmin =   1.0000E-06 Note: One successful gmin step
Trying gmin =   1.0000E-07 Note: One successful gmin step
Trying gmin =   3.1623E-08 Note: One successful gmin step
Trying gmin =   5.6234E-09 Warning: Further gmin increment
Trying gmin =   2.0535E-08 Note: One successful gmin step
Trying gmin =   1.3335E-08 Note: One successful gmin step
Trying gmin =   6.9783E-09 Note: One successful gmin step
Trying gmin =   2.6416E-09 Note: One successful gmin step
Trying gmin =   6.1527E-10 Note: One successful gmin step
Trying gmin =   6.9158E-11 Note: One successful gmin step
Trying gmin =   6.9158E-12 Note: One successful gmin step
Trying gmin =   1.0000E-12 Note: One successful gmin step
Note: True gmin stepping completed
Note: Starting true gmin stepping
Trying gmin =   1.0000E-03 Note: One successful gmin step
Trying gmin =   1.0000E-04 Note: One successful gmin step
Trying gmin =   1.0000E-05 Note: One successful gmin step
Trying gmin =   1.0000E-06 Note: One successful gmin step
Trying gmin =   1.0000E-07 Note: One successful gmin step
Trying gmin =   3.1623E-08 Note: One successful gmin step
Trying gmin =   5.6234E-09 Warning: Further gmin increment
Trying gmin =   2.0535E-08 Note: One successful gmin step
Trying gmin =   1.3335E-08 Note: One successful gmin step
Trying gmin =   6.9783E-09 Note: One successful gmin step
Trying gmin =   2.6416E-09 Note: One successful gmin step
Trying gmin =   6.1527E-10 Note: One successful gmin step
Trying gmin =   6.9158E-11 Note: One successful gmin step
Trying gmin =   6.9158E-12 Note: One successful gmin step
Trying gmin =   1.0000E-12 Note: One successful gmin step
Note: True gmin stepping completed
 Reference value :  8.50000e+01Note: Starting true gmin stepping
Trying gmin =   1.0000E-03 Note: One successful gmin step
Trying gmin =   1.0000E-04 Note: One successful gmin step
Trying gmin =   1.0000E-05 Note: One successful gmin step
Trying gmin =   1.0000E-06 Note: One successful gmin step
Trying gmin =   1.0000E-07 Note: One successful gmin step
Trying gmin =   1.0000E-08 Warning: Further gmin increment
Trying gmin =   5.6234E-08 Warning: Further gmin increment
Trying gmin =   8.6596E-08 Warning: Further gmin increment
Trying gmin =   9.6466E-08 Note: One successful gmin step
Trying gmin =   9.1398E-08 Note: One successful gmin step
Trying gmin =   8.4291E-08 Error: -9.95252e+154, 2 out of range for ^
Warning: Further gmin increment
Trying gmin =   8.9567E-08 Note: One successful gmin step
Trying gmin =   8.6889E-08 Warning: Further gmin increment
Trying gmin =   8.8890E-08 Warning: Further gmin increment
Trying gmin =   8.9397E-08 Note: One successful gmin step
Trying gmin =   8.9143E-08 Note: One successful gmin step
Trying gmin =   8.8764E-08 Warning: Further gmin increment
Trying gmin =   8.9048E-08 Note: One successful gmin step
Trying gmin =   8.8906E-08 Warning: Further gmin increment
Trying gmin =   8.9013E-08 Warning: Further gmin increment
Trying gmin =   8.9039E-08 Note: One successful gmin step
Trying gmin =   8.9026E-08 Warning: Further gmin increment
Trying gmin =   8.9036E-08 Note: One successful gmin step
Trying gmin =   8.9031E-08 Warning: Further gmin increment
Trying gmin =   8.9035E-08 Note: One successful gmin step
Trying gmin =   8.9033E-08 Note: One successful gmin step
Trying gmin =   8.9030E-08 Warning: Last gmin step failed
Warning: True gmin stepping failed
Note: Starting dynamic gmin stepping
Trying gmin =   1.0000E-03 Note: One successful gmin step
Trying gmin =   1.0000E-04 Note: One successful gmin step
Trying gmin =   1.0000E-05 Warning: Further gmin increment
Trying gmin =   5.6234E-05 Note: One successful gmin step
Trying gmin =   2.3714E-05 Note: One successful gmin step
Trying gmin =   6.4938E-06 Warning: Further gmin increment
Trying gmin =   1.7154E-05 Note: One successful gmin step
Trying gmin =   1.0554E-05 Warning: Further gmin increment
Trying gmin =   1.5193E-05 Note: One successful gmin step
Trying gmin =   1.2663E-05 Note: One successful gmin step
Trying gmin =   9.6358E-06 Note: One successful gmin step
Trying gmin =   6.3960E-06 Note: One successful gmin step
Trying gmin =   3.4589E-06 Note: One successful gmin step
Trying gmin =   1.8706E-06 Note: One successful gmin step
Trying gmin =   7.4391E-07 Note: One successful gmin step
Trying gmin =   1.8657E-07 Warning: Further gmin increment
Trying gmin =   5.2644E-07 Note: One successful gmin step
Trying gmin =   3.1340E-07 Warning: Further gmin increment
Trying gmin =   4.6242E-07 Note: One successful gmin step
Trying gmin =   3.8069E-07 Warning: Further gmin increment
Trying gmin =   4.4047E-07 Note: One successful gmin step
Trying gmin =   4.0949E-07 Warning: Further gmin increment
Trying gmin =   4.3252E-07 Note: One successful gmin step
Trying gmin =   4.2085E-07 Note: One successful gmin step
Trying gmin =   4.0393E-07 Warning: Further gmin increment
Trying gmin =   4.1655E-07 Warning: Further gmin increment
Trying gmin =   4.1977E-07 Note: One successful gmin step
Trying gmin =   4.1816E-07 Note: One successful gmin step
Trying gmin =   4.1575E-07 Warning: Further gmin increment
Trying gmin =   4.1755E-07 Note: One successful gmin step
Trying gmin =   4.1665E-07 Warning: Further gmin increment
Trying gmin =   4.1733E-07 Warning: Further gmin increment
Trying gmin =   4.1750E-07 Note: One successful gmin step
Trying gmin =   4.1741E-07 Warning: Further gmin increment
Trying gmin =   4.1748E-07 Note: One successful gmin step
Trying gmin =   4.1744E-07 Note: One successful gmin step
Trying gmin =   4.1740E-07 Warning: Further gmin increment
Trying gmin =   4.1743E-07 Note: One successful gmin step
Trying gmin =   4.1741E-07 Warning: Last gmin step failed
Warning: Dynamic gmin stepping failed
Note: Starting source stepping
Supplies reduced to   0.0000% Note: One successful source step
Supplies reduced to   0.1000% Note: One successful source step
Supplies reduced to   0.2000% Note: One successful source step
Supplies reduced to   0.3500% Note: One successful source step
Supplies reduced to   0.5750% Note: One successful source step
Supplies reduced to   0.9125% Note: One successful source step
Supplies reduced to   1.4188% Note: One successful source step
Supplies reduced to   2.1781% Note: One successful source step
Supplies reduced to   3.3172% Note: One successful source step
Supplies reduced to   5.0258% Note: One successful source step
Supplies reduced to   7.5887% Note: One successful source step
Supplies reduced to  11.4330% Note: One successful source step
Supplies reduced to  17.1995% Note: One successful source step
Supplies reduced to  25.8493% Supplies reduced to  17.1995% Note: One successful source step
Supplies reduced to  18.1995% Note: One successful source step
Supplies reduced to  19.6995% Note: One successful source step
Supplies reduced to  21.9495% Note: One successful source step
Supplies reduced to  25.3245% Supplies reduced to  21.9495% Note: One successful source step
Supplies reduced to  22.4558% Note: One successful source step
Supplies reduced to  23.2151% Note: One successful source step
Supplies reduced to  24.3542% Note: One successful source step
Supplies reduced to  26.0628% Note: One successful source step
Supplies reduced to  28.6257% Note: One successful source step
Supplies reduced to  32.4700% Note: One successful source step
Supplies reduced to  38.2365% Note: One successful source step
Supplies reduced to  46.8863% Note: One successful source step
Supplies reduced to  59.8609% Note: One successful source step
Supplies reduced to  72.8355% Supplies reduced to  59.8609% Note: One successful source step
Supplies reduced to  60.8609% Note: One successful source step
Supplies reduced to  62.3609% Note: One successful source step
Supplies reduced to  64.6109% Supplies reduced to  62.3609% Note: One successful source step
Supplies reduced to  62.6984% Note: One successful source step
Supplies reduced to  63.2047% Note: One successful source step
Supplies reduced to  63.9640% Supplies reduced to  63.2047% Note: One successful source step
Supplies reduced to  63.3186% Note: One successful source step
Supplies reduced to  63.4894% Note: One successful source step
Supplies reduced to  63.7457% Supplies reduced to  63.4894% Note: One successful source step
Supplies reduced to  63.5279% Note: One successful source step
Supplies reduced to  63.5855% Note: One successful source step
Supplies reduced to  63.6720% Note: One successful source step
Supplies reduced to  63.8018% Supplies reduced to  63.6720% Note: One successful source step
Supplies reduced to  63.6915% Note: One successful source step
Supplies reduced to  63.7207% Supplies reduced to  63.6915% Note: One successful source step
Supplies reduced to  63.6959% Note: One successful source step
Supplies reduced to  63.7024% Note: One successful source step
Supplies reduced to  63.7123% Note: One successful source step
Supplies reduced to  63.7271% Supplies reduced to  63.7123% Note: One successful source step
Supplies reduced to  63.7145% Note: One successful source step
Supplies reduced to  63.7178% Supplies reduced to  63.7145% Note: One successful source step
Supplies reduced to  63.7150% Note: One successful source step
Supplies reduced to  63.7158% Note: One successful source step
Supplies reduced to  63.7169% Supplies reduced to  63.7158% Note: One successful source step
Supplies reduced to  63.7159% Note: One successful source step
Supplies reduced to  63.7162% Note: One successful source step
Supplies reduced to  63.7166% Supplies reduced to  63.7162% Note: One successful source step
Supplies reduced to  63.7162% Warning: source stepping failed
doAnalyses: Too many iterations without convergence

dc simulation(s) aborted
Error(parse.c--checkvalid): vldo_sup_2_8: zero length vector.
Error: RHS "abs((vldo_sup_2_8-vldo_sup_2)/0.8)" invalid
Error(parse.c--checkvalid): line_reg: zero length vector.
Error(parse.c--checkvalid): vin: zero length vector.
Error: RHS "vin-1.764" invalid
Error(parse.c--checkvalid): dropout: zero length vector.
Error: no such vector dropout
Note: No ".plot", ".print", or ".fourier" lines; no simulations run
pm                  =  -4.376477e+01
Doing analysis at TEMP = 85.000000 and TNOM = 27.000000


No. of Data Rows : 91
psrr100             =  -4.583862e+01
psrr100k            =  -2.491646e+01
Doing analysis at TEMP = 85.000000 and TNOM = 27.000000


No. of Data Rows : 86
temp_coeff = 1.332937e+02
Doing analysis at TEMP = 85.000000 and TNOM = 27.000000


Error: measure  vldo_sup_2  (AT) : out of interval
 meas dc vldo_sup_2 find ldo_out at=2 failed!


Error: measure  vldo_sup_2_8  (AT) : out of interval
 meas dc vldo_sup_2_8 find ldo_out at=2.8 failed!


Error: measure  vin  (WHEN) : out of interval
 meas dc vin when v(ldo_out)=1.764 failed!

