Note: Starting true gmin stepping
Trying gmin =   1.0000E-03 Note: One successful gmin step
Trying gmin =   1.0000E-04 Note: One successful gmin step
Trying gmin =   1.0000E-05 Note: One successful gmin step
Trying gmin =   1.0000E-06 Note: One successful gmin step
Trying gmin =   1.0000E-07 Warning: Further gmin increment
Trying gmin =   5.6234E-07 Note: One successful gmin step
Trying gmin =   2.3714E-07 Note: One successful gmin step
Trying gmin =   1.5399E-07 Note: One successful gmin step
Trying gmin =   8.0584E-08 Note: One successful gmin step
Trying gmin =   3.0505E-08 Note: One successful gmin step
Trying gmin =   7.1050E-09 Note: One successful gmin step
Trying gmin =   7.9863E-10 Note: One successful gmin step
Trying gmin =   7.9863E-11 Note: One successful gmin step
Trying gmin =   7.9863E-12 Note: One successful gmin step
Trying gmin =   1.0000E-12 Note: One successful gmin step
Note: True gmin stepping completed
 Reference value :  0.00000e+00
No compatibility mode selected!


Circuit: * ldo netlist 

Doing analysis at TEMP = 0.000000 and TNOM = 27.000000


No. of Data Rows : 1
bg_out = 1.099242e+00
inn = 1.181107e+00
inp = 1.181048e+00
l1#branch = 0.000000e+00
ldo_out = 1.807313e+00
m.xm1.msky130_fd_pr__nfet_g5v0d10v5#body = 1.644390e-11
m.xm1.msky130_fd_pr__nfet_g5v0d10v5#dbody = 3.649756e-11
m.xm1.msky130_fd_pr__nfet_g5v0d10v5#sbody = 1.283413e-11
m.xm2.msky130_fd_pr__pfet_g5v0d10v5#body = 2.300000e+00
m.xm2.msky130_fd_pr__pfet_g5v0d10v5#dbody = 2.300000e+00
m.xm2.msky130_fd_pr__pfet_g5v0d10v5#sbody = 2.300000e+00
m.xm3.msky130_fd_pr__pfet_g5v0d10v5#body = 2.300000e+00
m.xm3.msky130_fd_pr__pfet_g5v0d10v5#dbody = 2.300000e+00
m.xm3.msky130_fd_pr__pfet_g5v0d10v5#sbody = 2.300000e+00
m.xm4.msky130_fd_pr__pfet_g5v0d10v5#body = 2.300000e+00
m.xm4.msky130_fd_pr__pfet_g5v0d10v5#dbody = 2.300000e+00
m.xm4.msky130_fd_pr__pfet_g5v0d10v5#sbody = 2.300000e+00
m.xm5.msky130_fd_pr__pfet_g5v0d10v5#body = 2.300000e+00
m.xm5.msky130_fd_pr__pfet_g5v0d10v5#dbody = 2.300000e+00
m.xm5.msky130_fd_pr__pfet_g5v0d10v5#sbody = 2.300000e+00
m.xm6.msky130_fd_pr__nfet_g5v0d10v5#body = 1.272603e-11
m.xm6.msky130_fd_pr__nfet_g5v0d10v5#dbody = 3.181508e-11
m.xm6.msky130_fd_pr__nfet_g5v0d10v5#sbody = 6.363022e-12
m.xm7.msky130_fd_pr__pfet_g5v0d10v5#body = 2.300000e+00
m.xm7.msky130_fd_pr__pfet_g5v0d10v5#dbody = 2.300000e+00
m.xm7.msky130_fd_pr__pfet_g5v0d10v5#sbody = 2.300000e+00
m.xm8.msky130_fd_pr__pfet_g5v0d10v5#body = 2.300000e+00
m.xm8.msky130_fd_pr__pfet_g5v0d10v5#dbody = 2.300000e+00
m.xm8.msky130_fd_pr__pfet_g5v0d10v5#sbody = 2.300000e+00
m.xm9.msky130_fd_pr__nfet_g5v0d10v5#body = 1.689999e-11
m.xm9.msky130_fd_pr__nfet_g5v0d10v5#dbody = 3.931415e-11
m.xm9.msky130_fd_pr__nfet_g5v0d10v5#sbody = 1.138583e-11
m.xm10.msky130_fd_pr__nfet_g5v0d10v5#body = 1.658299e-11
m.xm10.msky130_fd_pr__nfet_g5v0d10v5#dbody = 3.852164e-11
m.xm10.msky130_fd_pr__nfet_g5v0d10v5#sbody = 1.122733e-11
m.xm11.msky130_fd_pr__pfet_g5v0d10v5#body = 2.300000e+00
m.xm11.msky130_fd_pr__pfet_g5v0d10v5#dbody = 2.300000e+00
m.xm11.msky130_fd_pr__pfet_g5v0d10v5#sbody = 2.300000e+00
m.xm12.msky130_fd_pr__pfet_g5v0d10v5#body = 2.300000e+00
m.xm12.msky130_fd_pr__pfet_g5v0d10v5#dbody = 2.300000e+00
m.xm12.msky130_fd_pr__pfet_g5v0d10v5#sbody = 2.300000e+00
m.xm13.msky130_fd_pr__nfet_g5v0d10v5#body = 1.467897e-12
m.xm13.msky130_fd_pr__nfet_g5v0d10v5#dbody = 3.669733e-12
m.xm13.msky130_fd_pr__nfet_g5v0d10v5#sbody = 7.339571e-13
m.xm14.msky130_fd_pr__pfet_g5v0d10v5#body = 2.300000e+00
m.xm14.msky130_fd_pr__pfet_g5v0d10v5#dbody = 2.300000e+00
m.xm14.msky130_fd_pr__pfet_g5v0d10v5#sbody = 2.300000e+00
m.xm15.msky130_fd_pr__nfet_g5v0d10v5#body = 1.549400e-15
m.xm15.msky130_fd_pr__nfet_g5v0d10v5#dbody = 3.873464e-15
m.xm15.msky130_fd_pr__nfet_g5v0d10v5#sbody = 7.747350e-16
m.xm16.msky130_fd_pr__nfet_g5v0d10v5#body = 4.351395e-11
m.xm16.msky130_fd_pr__nfet_g5v0d10v5#dbody = 7.925710e-11
m.xm16.msky130_fd_pr__nfet_g5v0d10v5#sbody = 5.128477e-11
m.xm17.msky130_fd_pr__pfet_g5v0d10v5#body = 2.300000e+00
m.xm17.msky130_fd_pr__pfet_g5v0d10v5#dbody = 2.300000e+00
m.xm17.msky130_fd_pr__pfet_g5v0d10v5#sbody = 2.300000e+00
m.xm18.msky130_fd_pr__nfet_g5v0d10v5#body = 1.147786e-11
m.xm18.msky130_fd_pr__nfet_g5v0d10v5#dbody = 2.869463e-11
m.xm18.msky130_fd_pr__nfet_g5v0d10v5#sbody = 5.738940e-12
m.xm19.msky130_fd_pr__nfet_g5v0d10v5#body = 1.654567e-11
m.xm19.msky130_fd_pr__nfet_g5v0d10v5#dbody = 3.675200e-11
m.xm19.msky130_fd_pr__nfet_g5v0d10v5#sbody = 1.288502e-11
m.xm20.msky130_fd_pr__nfet_g5v0d10v5#body = 1.336026e-11
m.xm20.msky130_fd_pr__nfet_g5v0d10v5#dbody = 3.340063e-11
m.xm20.msky130_fd_pr__nfet_g5v0d10v5#sbody = 6.680142e-12
m.xm22.msky130_fd_pr__nfet_g5v0d10v5#body = 2.306127e-12
m.xm22.msky130_fd_pr__nfet_g5v0d10v5#dbody = 5.765312e-12
m.xm22.msky130_fd_pr__nfet_g5v0d10v5#sbody = 1.153068e-12
m.xm24.msky130_fd_pr__pfet_g5v0d10v5#body = 2.300000e+00
m.xm24.msky130_fd_pr__pfet_g5v0d10v5#dbody = 2.300000e+00
m.xm24.msky130_fd_pr__pfet_g5v0d10v5#sbody = 2.300000e+00
m.xm26.msky130_fd_pr__pfet_g5v0d10v5#body = 2.300000e+00
m.xm26.msky130Note: Starting true gmin stepping
Trying gmin =   1.0000E-03 Note: One successful gmin step
Trying gmin =   1.0000E-04 Note: One successful gmin step
Trying gmin =   1.0000E-05 Note: One successful gmin step
Trying gmin =   1.0000E-06 Note: One successful gmin step
Trying gmin =   1.0000E-07 Warning: Further gmin increment
Trying gmin =   5.6234E-07 Note: One successful gmin step
Trying gmin =   2.3714E-07 Note: One successful gmin step
Trying gmin =   1.5399E-07 Note: One successful gmin step
Trying gmin =   8.0584E-08 Note: One successful gmin step
Trying gmin =   3.0505E-08 Note: One successful gmin step
Trying gmin =   7.1050E-09 Note: One successful gmin step
Trying gmin =   7.9863E-10 Note: One successful gmin step
Trying gmin =   7.9863E-11 Note: One successful gmin step
Trying gmin =   7.9863E-12 Note: One successful gmin step
Trying gmin =   1.0000E-12 Note: One successful gmin step
Note: True gmin stepping completed
_fd_pr__pfet_g5v0d10v5#dbody = 2.300000e+00
m.xm26.msky130_fd_pr__pfet_g5v0d10v5#sbody = 2.300000e+00
mir = 1.131020e+00
net1 = 7.710455e-01
net2 = 1.238784e-04
net3 = 8.247987e-01
net4 = 1.844824e-01
net5 = 1.139162e+00
net6 = 1.018075e+00
net7 = 8.247391e-01
net8 = 1.209203e+00
net9 = 1.234563e+00
net10 = 1.174299e-01
net11 = 9.182266e-01
net12 = 9.182266e-01
net13 = 0.000000e+00
out = 9.182266e-01
pos = 1.099462e+00
q.xq2.qsky130_fd_pr__pnp_05v5_w0p68l0p68#collcx = 1.932686e-03
q.xq3.qsky130_fd_pr__pnp_05v5_w0p68l0p68#collcx = 2.433580e-04
q.xq4.qsky130_fd_pr__pnp_05v5_w0p68l0p68#collcx = 2.433580e-04
q.xq8.qsky130_fd_pr__pnp_05v5_w0p68l0p68#collcx = 2.433580e-04
q.xq10.qsky130_fd_pr__pnp_05v5_w0p68l0p68#collcx = 2.433580e-04
q.xq12.qsky130_fd_pr__pnp_05v5_w0p68l0p68#collcx = 2.433580e-04
q.xq14.qsky130_fd_pr__pnp_05v5_w0p68l0p68#collcx = 2.433580e-04
q.xq16.qsky130_fd_pr__pnp_05v5_w0p68l0p68#collcx = 2.433580e-04
q.xq18.qsky130_fd_pr__pnp_05v5_w0p68l0p68#collcx = 2.433580e-04
vb = 1.068819e+00
vdd = 2.300000e+00
vs#branch = -1.00531e-01
vt#branch = 0.000000e+00
xc1.a = 0.000000e+00
xc1.b1 = 0.000000e+00
xc3.a = 9.182266e-01
xc3.b1 = 9.182266e-01
xr1.xsky130_fd_pr__res_xhigh_po_0p69.ra = 8.275974e-01
xr2.xsky130_fd_pr__res_xhigh_po_0p69.ra = 8.276570e-01
xr3.xsky130_fd_pr__res_xhigh_po_0p69.ra = 2.082945e-03
xr4.xsky130_fd_pr__res_xhigh_po_0p69.ra = 7.718858e-01
xr5.xsky130_fd_pr__res_xhigh_po_0p69.ra = 2.082784e-03
xr6.xsky130_fd_pr__res_xhigh_po_0p69.ra = 3.040329e-03
xr7.xsky130_fd_pr__res_xhigh_po_0p69.ra = 9.182266e-01
xr8.xsky130_fd_pr__res_xhigh_po_0p69.ra = 1.104080e+00
xr9.xsky130_fd_pr__res_xhigh_po_0p69.ra = 4.767268e-03
Doing analysis at TEMP = 0.000000 and TNOM = 27.000000


No. of Data Rows : 91
Error: no such vector PM
Note: Starting true gmin stepping
Trying gmin =   1.0000E-03 Note: One successful gmin step
Trying gmin =   1.0000E-04 Note: One successful gmin step
Trying gmin =   1.0000E-05 Note: One successful gmin step
Trying gmin =   1.0000E-06 Note: One successful gmin step
Trying gmin =   1.0000E-07 Warning: Further gmin increment
Trying gmin =   5.6234E-07 Note: One successful gmin step
Trying gmin =   2.3714E-07 Note: One successful gmin step
Trying gmin =   1.5399E-07 Note: One successful gmin step
Trying gmin =   8.0584E-08 Note: One successful gmin step
Trying gmin =   3.0505E-08 Note: One successful gmin step
Trying gmin =   7.1050E-09 Note: One successful gmin step
Trying gmin =   7.9863E-10 Note: One successful gmin step
Trying gmin =   7.9863E-11 Note: One successful gmin step
Trying gmin =   7.9863E-12 Note: One successful gmin step
Trying gmin =   1.0000E-12 Note: One successful gmin step
Note: True gmin stepping completed
 Reference value :  4.10000e+01Note: Starting true gmin stepping
Trying gmin =   1.0000E-03 Note: One successful gmin step
Trying gmin =   1.0000E-04 Note: One successful gmin step
Trying gmin =   1.0000E-05 Note: One successful gmin step
Trying gmin =   1.0000E-06 Warning: Further gmin increment
Trying gmin =   5.6234E-06 Note: One successful gmin step
Trying gmin =   2.3714E-06 Note: One successful gmin step
Trying gmin =   6.4938E-07 Warning: Further gmin increment
Trying gmin =   1.7154E-06 Note: One successful gmin step
Trying gmin =   1.0554E-06 Note: One successful gmin step
Trying gmin =   5.0937E-07 Note: One successful gmin step
Trying gmin =   2.4582E-07 Note: One successful gmin step
Trying gmin =   1.1864E-07 Note: One successful gmin step
Trying gmin =   3.9775E-08 Note: One successful gmin step
Trying gmin =   7.7214E-09 Note: One successful gmin step
Trying gmin =   7.7214E-10 Note: One successful gmin step
Trying gmin =   7.7214E-11 Note: One successful gmin step
Trying gmin =   7.7214E-12 Note: One successful gmin step
Trying gmin =   1.0000E-12 Note: One successful gmin step
Note: True gmin stepping completed
 Reference value :  1.26000e+00Note: Starting true gmin stepping
Trying gmin =   1.0000E-03 Note: One successful gmin step
Trying gmin =   1.0000E-04 Note: One successful gmin step
Trying gmin =   1.0000E-05 Note: One successful gmin step
Trying gmin =   1.0000E-06 Note: One successful gmin step
Trying gmin =   1.0000E-07 Note: One successful gmin step
Trying gmin =   1.0000E-08 Note: One successful gmin step
Trying gmin =   3.1623E-09 Note: One successful gmin step
Trying gmin =   5.6234E-10 Note: One successful gmin step
Trying gmin =   5.6234E-11 Note: One successful gmin step
Trying gmin =   5.6234E-12 Note: One successful gmin step
Trying gmin =   1.7783E-12 Warning: Further gmin increment
Trying gmin =   4.2170E-12 Note: One successful gmin step
Trying gmin =   2.7384E-12 Note: One successful gmin step
Trying gmin =   1.4330E-12 Warning: Further gmin increment
Trying gmin =   2.3291E-12 Note: One successful gmin step
Trying gmin =   1.8269E-12 Warning: Further gmin increment
Trying gmin =   2.1919E-12 Note: One successful gmin step
Trying gmin =   2.0011E-12 Note: One successful gmin step
Trying gmin =   1.8269E-12 Note: One successful gmin step
Trying gmin =   1.5936E-12 Note: One successful gmin step
Trying gmin =   1.2984E-12 Note: One successful gmin step
Trying gmin =   1.0000E-12 Note: One successful gmin step
Note: True gmin stepping completed
 Reference value :  1.18000e+00Note: Starting true gmin stepping
Trying gmin =   1.0000E-03 Note: One successful gmin step
Trying gmin =   1.0000E-04 Note: One successful gmin step
Trying gmin =   1.0000E-05 Note: One successful gmin step
Trying gmin =   1.0000E-06 Note: One successful gmin step
Trying gmin =   1.0000E-07 Note: One successful gmin step
Trying gmin =   1.0000E-08 Note: One successful gmin step
Trying gmin =   1.0000E-09 Note: One successful gmin step
Trying gmin =   1.0000E-10 Note: One successful gmin step
Trying gmin =   1.0000E-11 Note: One successful gmin step
Trying gmin =   1.0000E-12 Warning: Further gmin increment
Trying gmin =   5.6234E-12 Note: One successful gmin step
Trying gmin =   2.3714E-12 Note: One successful gmin step
Trying gmin =   1.0000E-12 Note: One successful gmin step
Note: True gmin stepping completed
 Reference value :  1.12000e+00 Reference value :  8.60000e-01
Error: measure  pm  (AT) : out of interval
 meas ac pm find p when vdb(ldo_out)=0 failed!

Doing analysis at TEMP = 0.000000 and TNOM = 27.000000


No. of Data Rows : 91
psrr100             =  -5.797733e+01
psrr100k            =  -2.673523e+01
Doing analysis at TEMP = 0.000000 and TNOM = 27.000000


No. of Data Rows : 86
temp_coeff = 5.701843e+01
Doing analysis at TEMP = 0.000000 and TNOM = 27.000000


No. of Data Rows : 141
vldo_sup_2          =  1.807739e+00
vldo_sup_2_8        =  1.806868e+00
line_reg = 1.088750e-03
Note: No ".plot", ".print", or ".fourier" lines; no simulations run
vin                 =  1.894199e+00
dropout = 1.301990e-01
