 Reference value :  0.00000e+00
No compatibility mode selected!


Circuit: * ldo netlist 

Doing analysis at TEMP = 85.000000 and TNOM = 27.000000


No. of Data Rows : 1
bg_out = 1.102543e+00
inn = 1.064729e+00
inp = 1.064669e+00
l1#branch = 0.000000e+00
ldo_out = 1.812935e+00
m.xm1.msky130_fd_pr__nfet_g5v0d10v5#body = 3.007613e-11
m.xm1.msky130_fd_pr__nfet_g5v0d10v5#dbody = 5.918257e-11
m.xm1.msky130_fd_pr__nfet_g5v0d10v5#sbody = 3.104582e-11
m.xm2.msky130_fd_pr__pfet_g5v0d10v5#body = 2.500000e+00
m.xm2.msky130_fd_pr__pfet_g5v0d10v5#dbody = 2.500000e+00
m.xm2.msky130_fd_pr__pfet_g5v0d10v5#sbody = 2.500000e+00
m.xm3.msky130_fd_pr__pfet_g5v0d10v5#body = 2.500000e+00
m.xm3.msky130_fd_pr__pfet_g5v0d10v5#dbody = 2.500000e+00
m.xm3.msky130_fd_pr__pfet_g5v0d10v5#sbody = 2.500000e+00
m.xm4.msky130_fd_pr__pfet_g5v0d10v5#body = 2.500000e+00
m.xm4.msky130_fd_pr__pfet_g5v0d10v5#dbody = 2.500000e+00
m.xm4.msky130_fd_pr__pfet_g5v0d10v5#sbody = 2.500000e+00
m.xm5.msky130_fd_pr__pfet_g5v0d10v5#body = 2.500000e+00
m.xm5.msky130_fd_pr__pfet_g5v0d10v5#dbody = 2.500000e+00
m.xm5.msky130_fd_pr__pfet_g5v0d10v5#sbody = 2.500000e+00
m.xm6.msky130_fd_pr__nfet_g5v0d10v5#body = 1.989358e-11
m.xm6.msky130_fd_pr__nfet_g5v0d10v5#dbody = 4.973383e-11
m.xm6.msky130_fd_pr__nfet_g5v0d10v5#sbody = 9.946911e-12
m.xm7.msky130_fd_pr__pfet_g5v0d10v5#body = 2.500000e+00
m.xm7.msky130_fd_pr__pfet_g5v0d10v5#dbody = 2.500000e+00
m.xm7.msky130_fd_pr__pfet_g5v0d10v5#sbody = 2.500000e+00
m.xm8.msky130_fd_pr__pfet_g5v0d10v5#body = 2.500000e+00
m.xm8.msky130_fd_pr__pfet_g5v0d10v5#dbody = 2.500000e+00
m.xm8.msky130_fd_pr__pfet_g5v0d10v5#sbody = 2.500000e+00
m.xm9.msky130_fd_pr__nfet_g5v0d10v5#body = 2.821169e-11
m.xm9.msky130_fd_pr__nfet_g5v0d10v5#dbody = 5.753736e-11
m.xm9.msky130_fd_pr__nfet_g5v0d10v5#sbody = 2.709766e-11
m.xm10.msky130_fd_pr__nfet_g5v0d10v5#body = 2.794724e-11
m.xm10.msky130_fd_pr__nfet_g5v0d10v5#dbody = 5.687626e-11
m.xm10.msky130_fd_pr__nfet_g5v0d10v5#sbody = 2.696543e-11
m.xm11.msky130_fd_pr__pfet_g5v0d10v5#body = 2.500000e+00
m.xm11.msky130_fd_pr__pfet_g5v0d10v5#dbody = 2.500000e+00
m.xm11.msky130_fd_pr__pfet_g5v0d10v5#sbody = 2.500000e+00
m.xm12.msky130_fd_pr__pfet_g5v0d10v5#body = 2.500000e+00
m.xm12.msky130_fd_pr__pfet_g5v0d10v5#dbody = 2.500000e+00
m.xm12.msky130_fd_pr__pfet_g5v0d10v5#sbody = 2.500000e+00
m.xm13.msky130_fd_pr__nfet_g5v0d10v5#body = 4.849811e-12
m.xm13.msky130_fd_pr__nfet_g5v0d10v5#dbody = 1.212446e-11
m.xm13.msky130_fd_pr__nfet_g5v0d10v5#sbody = 2.424975e-12
m.xm14.msky130_fd_pr__pfet_g5v0d10v5#body = 2.500000e+00
m.xm14.msky130_fd_pr__pfet_g5v0d10v5#dbody = 2.500000e+00
m.xm14.msky130_fd_pr__pfet_g5v0d10v5#sbody = 2.500000e+00
m.xm15.msky130_fd_pr__nfet_g5v0d10v5#body = 6.203429e-14
m.xm15.msky130_fd_pr__nfet_g5v0d10v5#dbody = 1.550827e-13
m.xm15.msky130_fd_pr__nfet_g5v0d10v5#sbody = 3.102012e-14
m.xm16.msky130_fd_pr__nfet_g5v0d10v5#body = 5.511358e-11
m.xm16.msky130_fd_pr__nfet_g5v0d10v5#dbody = 1.006113e-10
m.xm16.msky130_fd_pr__nfet_g5v0d10v5#sbody = 6.472948e-11
m.xm17.msky130_fd_pr__pfet_g5v0d10v5#body = 2.500000e+00
m.xm17.msky130_fd_pr__pfet_g5v0d10v5#dbody = 2.500000e+00
m.xm17.msky130_fd_pr__pfet_g5v0d10v5#sbody = 2.500000e+00
m.xm18.msky130_fd_pr__nfet_g5v0d10v5#body = 2.081194e-11
m.xm18.msky130_fd_pr__nfet_g5v0d10v5#dbody = 5.201646e-11
m.xm18.msky130_fd_pr__nfet_g5v0d10v5#sbody = 1.040605e-11
m.xm19.msky130_fd_pr__nfet_g5v0d10v5#body = 3.017245e-11
m.xm19.msky130_fd_pr__nfet_g5v0d10v5#dbody = 5.942336e-11
m.xm19.msky130_fd_pr__nfet_g5v0d10v5#sbody = 3.109398e-11
m.xm20.msky130_fd_pr__nfet_g5v0d10v5#body = 1.357434e-11
m.xm20.msky130_fd_pr__nfet_g5v0d10v5#dbody = 3.393578e-11
m.xm20.msky130_fd_pr__nfet_g5v0d10v5#sbody = 6.787253e-12
m.xm22.msky130_fd_pr__nfet_g5v0d10v5#body = 1.129489e-11
m.xm22.msky130_fd_pr__nfet_g5v0d10v5#dbody = 2.823712e-11
m.xm22.msky130_fd_pr__nfet_g5v0d10v5#sbody = 5.647560e-12
m.xm24.msky130_fd_pr__pfet_g5v0d10v5#body = 2.500000e+00
m.xm24.msky130_fd_pr__pfet_g5v0d10v5#dbody = 2.500000e+00
m.xm24.msky130_fd_pr__pfet_g5v0d10v5#sbody = 2.500000e+00
m.xm26.msky130_fd_pr__pfet_g5v0d10v5#body = 2.500000e+00
m.xm26.msky130_fd_pr__pfet_g5v0d10v5#dbody = 2.500000e+00
m.xm26.msky130_fd_pr__pfet_g5v0d10v5#sbody = 2.500000e+00
mir = 1.343601e+00
net1 = 6.313276e-01
net2 = 1.199340e-04
net3 = 7.051793e-01
net4 = 2.187182e-01
net5 = 1.351307e+00
net6 = 9.056594e-01
net7 = 7.051184e-01
net8 = 1.425749e+00
net9 = 1.446904e+00
net10 = 2.296066e-01
net11 = 1.505885e+00
net12 = 1.505885e+00
net13 = 0.000000e+00
out = 1.505885e+00
pos = 1.102761e+00
q.xq2.qsky130_fd_pr__pnp_05v5_w0p68l0p68#collcx = 3.101039e-03
q.xq3.qsky130_fd_pr__pnp_05v5_w0p68l0p68#collcx = 3.915866e-04
q.xq4.qsky130_fd_pr__pnp_05v5_w0p68l0p68#collcx = 3.915866e-04
q.xq8.qsky130_fd_pr__pnp_05v5_w0p68l0p68#collcx = 3.915866e-04
q.xq10.qsky130_fd_pr__pnp_05v5_w0p68l0p68#collcx = 3.915866e-04
q.xq12.qsky130_fd_pr__pnp_05v5_w0p68l0p68#collcx = 3.915866e-04
q.xq14.qsky130_fd_pr__pnp_05v5_w0p68l0p68#collcx = 3.915866e-04
q.xq16.qsky130_fd_pr__pnp_05v5_w0p68l0p68#collcx = 3.915866e-04
q.xq18.qsky130_fd_pr__pnp_05v5_w0p68l0p68#collcx = 3.915866e-04
vb = 9.274099e-01
vdd = 2.500000e+00
vs#branch = -1.02172e-02
vt#branch = 0.000000e+00
xc1.a = 0.000000e+00
xc1.b1 = 0.000000e+00
xc3.a = 1.505885e+00
xc3.b1 = 1.505885e+00
xr1.xsky130_fd_pr__res_xhigh_po_0p69.ra = 7.083680e-01
xr2.xsky130_fd_pr__res_xhigh_po_0p69.ra = 7.084289e-01
xr3.xsky130_fd_pr__res_xhigh_po_0p69.ra = 1.987431e-03
xr4.xsky130_fd_pr__res_xhigh_po_0p69.ra = 6.326272e-01
xr5.xsky130_fd_pr__res_xhigh_po_0p69.ra = 1.987250e-03
xr6.xsky130_fd_pr__res_xhigh_po_0p69.ra = 3.438096e-03
xr7.xsky130_fd_pr__res_xhigh_po_0p69.ra = 1.505885e+00
xr8.xsky130_fd_pr__res_xhigh_po_0p69.ra = 1.107982e+00
xr9.xsky130_fd_pr__res_xhigh_po_0p69.ra = 5.389875e-03
Doing analysis at TEMP = 85.000000 and TNOM = 27.000000


No. of Data Rows : 91
Error: no such vector PM
Note: Starting true gmin stepping
Trying gmin =   1.0000E-03 Note: One successful gmin step
Trying gmin =   1.0000E-04 Note: One successful gmin step
Trying gmin =   1.0000E-05 Note: One successful gmin step
Trying gmin =   3.1623E-06 Note: One successful gmin step
Trying gmin =   5.6234E-07 Note: One successful gmin step
Trying gmin =   5.6234E-08 Warning: Further gmin increment
Trying gmin =   3.1623E-07 Note: One successful gmin step
Trying gmin =   1.3335E-07 Warning: Further gmin increment
Trying gmin =   2.5483E-07 Note: One successful gmin step
Trying gmin =   1.8434E-07 Note: One successful gmin step
Trying gmin =   1.1342E-07 Warning: Further gmin increment
Trying gmin =   1.6326E-07 Note: One successful gmin step
Trying gmin =   1.3608E-07 Warning: Further gmin increment
Trying gmin =   1.5600E-07 Note: One successful gmin step
Trying gmin =   1.4570E-07 Note: One successful gmin step
Trying gmin =   1.3151E-07 Warning: Further gmin increment
Trying gmin =   1.4201E-07 Note: One successful gmin step
Trying gmin =   1.3666E-07 Note: One successful gmin step
Trying gmin =   1.2901E-07 Warning: Further gmin increment
Trying gmin =   1.3471E-07 Warning: Further gmin increment
Trying gmin =   1.3617E-07 Warning: Further gmin increment
Trying gmin =   1.3654E-07 Note: One successful gmin step
Trying gmin =   1.3635E-07 Warning: Further gmin increment
Trying gmin =   1.3649E-07 Note: One successful gmin step
Trying gmin =   1.3642E-07 Warning: Further gmin increment
Trying gmin =   1.3647E-07 Note: One successful gmin step
Trying gmin =   1.3645E-07 Warning: Further gmin increment
Trying gmin =   1.3647E-07 Warning: Last gmin step failed
Warning: True gmin stepping failed
Note: Starting dynamic gmin stepping
Trying gmin =   1.0000E-03 Note: One successful gmin step
Trying gmin =   1.0000E-04 Note: One successful gmin step
Trying gmin =   1.0000E-05 Note: One successful gmin step
Trying gmin =   1.0000E-06 Note: One successful gmin step
Trying gmin =   1.0000E-07 Warning: Further gmin increment
Trying gmin =   5.6234E-07 Warning: Further gmin increment
Trying gmin =   8.6596E-07 Note: One successful gmin step
Trying gmin =   6.9783E-07 Note: One successful gmin step
Trying gmin =   5.0481E-07 Warning: Further gmin increment
Trying gmin =   6.4357E-07 Note: One successful gmin step
Trying gmin =   5.6998E-07 Warning: Further gmin increment
Trying gmin =   6.2432E-07 Warning: Further gmin increment
Trying gmin =   6.3870E-07 Warning: Further gmin increment
Trying gmin =   6.4235E-07 Note: One successful gmin step
Trying gmin =   6.4052E-07 Warning: Further gmin increment
Trying gmin =   6.4189E-07 Note: One successful gmin step
Trying gmin =   6.4121E-07 Warning: Further gmin increment
Trying gmin =   6.4172E-07 Warning: Further gmin increment
Trying gmin =   6.4185E-07 Warning: Further gmin increment
Trying gmin =   6.4188E-07 Note: One successful gmin step
Trying gmin =   6.4186E-07 Note: One successful gmin step
Trying gmin =   6.4184E-07 Warning: Last gmin step failed
Warning: Dynamic gmin stepping failed
Note: Starting source stepping
Supplies reduced to   0.0000% Note: One successful source step
Supplies reduced to   0.1000% Note: One successful source step
Supplies reduced to   0.2000% Note: One successful source step
Supplies reduced to   0.3500% Note: One successful source step
Supplies reduced to   0.5750% Note: One successful source step
Supplies reduced to   0.9125% Note: One successful source step
Supplies reduced to   1.4188% Note: One successful source step
Supplies reduced to   2.1781% Note: One successful source step
Supplies reduced to   3.3172% Note: One successful source step
Supplies reduced to   5.0258% Note: One successful source step
Supplies reduced to   7.5887% Note: One successful source step
Supplies reduced to  11.4330% Note: One successful source step
Supplies reduced to  17.1995% Note: One successful source step
Supplies reduced to  25.8493% Note: One successful source step
Supplies reduced to  38.8239% Supplies reduced to  25.8493% Note: One successful source step
Supplies reduced to  26.4980% Note: One successful source step
Supplies reduced to  27.4711% Note: One successful source step
Supplies reduced to  28.9307% Note: One successful source step
Supplies reduced to  31.1202% Note: One successful source step
Supplies reduced to  34.4044% Note: One successful source step
Supplies reduced to  39.3307% Note: One successful source step
Supplies reduced to  46.7202% Note: One successful source step
Supplies reduced to  54.1096% Note: One successful source step
Supplies reduced to  65.1938% Supplies reduced to  54.1096% Note: One successful source step
Supplies reduced to  55.1096% Note: One successful source step
Supplies reduced to  56.6096% Note: One successful source step
Supplies reduced to  58.8596% Note: One successful source step
Supplies reduced to  62.2346% Supplies reduced to  58.8596% Note: One successful source step
Supplies reduced to  59.3659% Note: One successful source step
Supplies reduced to  60.1253% Note: One successful source step
Supplies reduced to  61.2643% Note: One successful source step
Supplies reduced to  62.9729% Supplies reduced to  61.2643% Note: One successful source step
Supplies reduced to  61.5206% Note: One successful source step
Supplies reduced to  61.9051% Supplies reduced to  61.5206% Note: One successful source step
Supplies reduced to  61.5783% Note: One successful source step
Supplies reduced to  61.6648% Supplies reduced to  61.5783% Note: One successful source step
Supplies reduced to  61.5913% Note: One successful source step
Supplies reduced to  61.6107% Note: One successful source step
Supplies reduced to  61.6399% Supplies reduced to  61.6107% Note: One successful source step
Supplies reduced to  61.6151% Note: One successful source step
Supplies reduced to  61.6217% Supplies reduced to  61.6151% Note: One successful source step
Supplies reduced to  61.6161% Note: One successful source step
Supplies reduced to  61.6176% Supplies reduced to  61.6161% Note: One successful source step
Supplies reduced to  61.6163% Note: One successful source step
Supplies reduced to  61.6166% Note: One successful source step
Supplies reduced to  61.6171% Supplies reduced to  61.6166% Note: One successful source step
Supplies reduced to  61.6167% Note: One successful source step
Supplies reduced to  61.6168% Note: One successful source step
Supplies reduced to  61.6170% Note: One successful source step
Supplies reduced to  61.6172% Supplies reduced to  61.6170% Note: One successful source step
Supplies reduced to  61.6170% Warning: source stepping failed
doAnalyses: Too many iterations without convergence

dc simulation(s) aborted
Error(parse.c--checkvalid): vldo_sup_2_8: zero length vector.
Error: RHS "abs((vldo_sup_2_8-vldo_sup_2)/0.8)" invalid
Error(parse.c--checkvalid): line_reg: zero length vector.
Error(parse.c--checkvalid): vin: zero length vector.
Error: RHS "vin-1.764" invalid
Error(parse.c--checkvalid): dropout: zero length vector.
Error: no such vector dropout
Note: No ".plot", ".print", or ".fourier" lines; no simulations run

Error: measure  pm  (AT) : out of interval
 meas ac pm find p when vdb(ldo_out)=0 failed!

Doing analysis at TEMP = 85.000000 and TNOM = 27.000000


No. of Data Rows : 91
psrr100             =  -5.466744e+01
psrr100k            =  -2.488715e+01
Doing analysis at TEMP = 85.000000 and TNOM = 27.000000


No. of Data Rows : 86
temp_coeff = 7.184447e+01
Doing analysis at TEMP = 85.000000 and TNOM = 27.000000


Error: measure  vldo_sup_2  (AT) : out of interval
 meas dc vldo_sup_2 find ldo_out at=2 failed!


Error: measure  vldo_sup_2_8  (AT) : out of interval
 meas dc vldo_sup_2_8 find ldo_out at=2.8 failed!


Error: measure  vin  (WHEN) : out of interval
 meas dc vin when v(ldo_out)=1.764 failed!

