 Reference value :  0.00000e+00
No compatibility mode selected!


Circuit: * ldo netlist 

Doing analysis at TEMP = 85.000000 and TNOM = 27.000000


No. of Data Rows : 1
bg_out = 1.194740e+00
inn = 1.137398e+00
inp = 1.137392e+00
l1#branch = 0.000000e+00
ldo_out = 1.797541e+00
m.xm1.msky130_fd_pr__nfet_g5v0d10v5#body = 3.215237e-11
m.xm1.msky130_fd_pr__nfet_g5v0d10v5#dbody = 6.209919e-11
m.xm1.msky130_fd_pr__nfet_g5v0d10v5#sbody = 3.435793e-11
m.xm2.msky130_fd_pr__pfet_g5v0d10v5#body = 2.500000e+00
m.xm2.msky130_fd_pr__pfet_g5v0d10v5#dbody = 2.500000e+00
m.xm2.msky130_fd_pr__pfet_g5v0d10v5#sbody = 2.500000e+00
m.xm3.msky130_fd_pr__pfet_g5v0d10v5#body = 2.500000e+00
m.xm3.msky130_fd_pr__pfet_g5v0d10v5#dbody = 2.500000e+00
m.xm3.msky130_fd_pr__pfet_g5v0d10v5#sbody = 2.500000e+00
m.xm4.msky130_fd_pr__pfet_g5v0d10v5#body = 2.500000e+00
m.xm4.msky130_fd_pr__pfet_g5v0d10v5#dbody = 2.500000e+00
m.xm4.msky130_fd_pr__pfet_g5v0d10v5#sbody = 2.500000e+00
m.xm5.msky130_fd_pr__pfet_g5v0d10v5#body = 2.500000e+00
m.xm5.msky130_fd_pr__pfet_g5v0d10v5#dbody = 2.500000e+00
m.xm5.msky130_fd_pr__pfet_g5v0d10v5#sbody = 2.500000e+00
m.xm6.msky130_fd_pr__nfet_g5v0d10v5#body = 1.928573e-11
m.xm6.msky130_fd_pr__nfet_g5v0d10v5#dbody = 4.821422e-11
m.xm6.msky130_fd_pr__nfet_g5v0d10v5#sbody = 9.642979e-12
m.xm7.msky130_fd_pr__pfet_g5v0d10v5#body = 2.500000e+00
m.xm7.msky130_fd_pr__pfet_g5v0d10v5#dbody = 2.500000e+00
m.xm7.msky130_fd_pr__pfet_g5v0d10v5#sbody = 2.500000e+00
m.xm8.msky130_fd_pr__pfet_g5v0d10v5#body = 2.500000e+00
m.xm8.msky130_fd_pr__pfet_g5v0d10v5#dbody = 2.500000e+00
m.xm8.msky130_fd_pr__pfet_g5v0d10v5#sbody = 2.500000e+00
m.xm9.msky130_fd_pr__nfet_g5v0d10v5#body = 3.034703e-11
m.xm9.msky130_fd_pr__nfet_g5v0d10v5#dbody = 6.019852e-11
m.xm9.msky130_fd_pr__nfet_g5v0d10v5#sbody = 3.084257e-11
m.xm10.msky130_fd_pr__nfet_g5v0d10v5#body = 3.016438e-11
m.xm10.msky130_fd_pr__nfet_g5v0d10v5#dbody = 5.974188e-11
m.xm10.msky130_fd_pr__nfet_g5v0d10v5#sbody = 3.075124e-11
m.xm11.msky130_fd_pr__pfet_g5v0d10v5#body = 2.500000e+00
m.xm11.msky130_fd_pr__pfet_g5v0d10v5#dbody = 2.500000e+00
m.xm11.msky130_fd_pr__pfet_g5v0d10v5#sbody = 2.500000e+00
m.xm12.msky130_fd_pr__pfet_g5v0d10v5#body = 2.500000e+00
m.xm12.msky130_fd_pr__pfet_g5v0d10v5#dbody = 2.500000e+00
m.xm12.msky130_fd_pr__pfet_g5v0d10v5#sbody = 2.500000e+00
m.xm13.msky130_fd_pr__nfet_g5v0d10v5#body = 6.186841e-12
m.xm13.msky130_fd_pr__nfet_g5v0d10v5#dbody = 1.546703e-11
m.xm13.msky130_fd_pr__nfet_g5v0d10v5#sbody = 3.093488e-12
m.xm14.msky130_fd_pr__pfet_g5v0d10v5#body = 2.500000e+00
m.xm14.msky130_fd_pr__pfet_g5v0d10v5#dbody = 2.500000e+00
m.xm14.msky130_fd_pr__pfet_g5v0d10v5#sbody = 2.500000e+00
m.xm15.msky130_fd_pr__nfet_g5v0d10v5#body = 3.962794e-14
m.xm15.msky130_fd_pr__nfet_g5v0d10v5#dbody = 9.906672e-14
m.xm15.msky130_fd_pr__nfet_g5v0d10v5#sbody = 1.981709e-14
m.xm16.msky130_fd_pr__nfet_g5v0d10v5#body = 5.597008e-11
m.xm16.msky130_fd_pr__nfet_g5v0d10v5#dbody = 1.009876e-10
m.xm16.msky130_fd_pr__nfet_g5v0d10v5#sbody = 6.692259e-11
m.xm17.msky130_fd_pr__pfet_g5v0d10v5#body = 2.500000e+00
m.xm17.msky130_fd_pr__pfet_g5v0d10v5#dbody = 2.500000e+00
m.xm17.msky130_fd_pr__pfet_g5v0d10v5#sbody = 2.500000e+00
m.xm18.msky130_fd_pr__nfet_g5v0d10v5#body = 2.183432e-11
m.xm18.msky130_fd_pr__nfet_g5v0d10v5#dbody = 5.450569e-11
m.xm18.msky130_fd_pr__nfet_g5v0d10v5#sbody = 1.091724e-11
m.xm19.msky130_fd_pr__nfet_g5v0d10v5#body = 3.216105e-11
m.xm19.msky130_fd_pr__nfet_g5v0d10v5#dbody = 6.212088e-11
m.xm19.msky130_fd_pr__nfet_g5v0d10v5#sbody = 3.436226e-11
m.xm20.msky130_fd_pr__nfet_g5v0d10v5#body = 1.269434e-11
m.xm20.msky130_fd_pr__nfet_g5v0d10v5#dbody = 3.173578e-11
m.xm20.msky130_fd_pr__nfet_g5v0d10v5#sbody = 6.347245e-12
m.xm22.msky130_fd_pr__nfet_g5v0d10v5#body = 1.243618e-11
m.xm22.msky130_fd_pr__nfet_g5v0d10v5#dbody = 3.109035e-11
m.xm22.msky130_fd_pr__nfet_g5v0d10v5#sbody = 6.218201e-12
m.xm24.msky130_fd_pr__pfet_g5v0d10v5#body = 2.500000e+00
m.xm24.msky130_fd_pr__pfet_g5v0d10v5#dbody = 2.500000e+00
m.xm24.msky130_fd_pr__pfet_g5v0d10v5#sbody = 2.500000e+00
m.xm26.msky130_fd_pr__pfet_g5v0d10v5#body = 2.500000e+00
m.xm26.msky130_fd_pr__pfet_g5v0d10v5#dbody = 2.500000e+00
m.xm26.msky130_fd_pr__pfet_g5v0d10v5#sbody = 2.500000e+00
mir = 1.420816e+00
net1 = 6.225891e-01
net2 = 7.668148e-05
net3 = 6.963269e-01
net4 = 3.112014e-01
net5 = 1.421510e+00
net6 = 8.591064e-01
net7 = 6.963211e-01
net8 = 1.498106e+00
net9 = 1.512718e+00
net10 = 3.384905e-01
net11 = 1.587081e+00
net12 = 1.587081e+00
net13 = 0.000000e+00
out = 1.587081e+00
pos = 1.194895e+00
q.xq2.qsky130_fd_pr__pnp_05v5_w0p68l0p68#collcx = 3.026954e-03
q.xq3.qsky130_fd_pr__pnp_05v5_w0p68l0p68#collcx = 3.808336e-04
q.xq4.qsky130_fd_pr__pnp_05v5_w0p68l0p68#collcx = 3.808336e-04
q.xq8.qsky130_fd_pr__pnp_05v5_w0p68l0p68#collcx = 3.808336e-04
q.xq10.qsky130_fd_pr__pnp_05v5_w0p68l0p68#collcx = 3.808336e-04
q.xq12.qsky130_fd_pr__pnp_05v5_w0p68l0p68#collcx = 3.808336e-04
q.xq14.qsky130_fd_pr__pnp_05v5_w0p68l0p68#collcx = 3.808336e-04
q.xq16.qsky130_fd_pr__pnp_05v5_w0p68l0p68#collcx = 3.808336e-04
q.xq18.qsky130_fd_pr__pnp_05v5_w0p68l0p68#collcx = 3.808336e-04
vb = 8.590843e-01
vdd = 2.500000e+00
vs#branch = -1.01252e-02
vt#branch = 0.000000e+00
xc1.a = 0.000000e+00
xc1.b1 = 0.000000e+00
xc3.a = 1.587081e+00
xc3.b1 = 1.587081e+00
xr1.xsky130_fd_pr__res_xhigh_po_0p69.ra = 7.021095e-01
xr2.xsky130_fd_pr__res_xhigh_po_0p69.ra = 7.021152e-01
xr3.xsky130_fd_pr__res_xhigh_po_0p69.ra = 3.431297e-03
xr4.xsky130_fd_pr__res_xhigh_po_0p69.ra = 6.249763e-01
xr5.xsky130_fd_pr__res_xhigh_po_0p69.ra = 3.431267e-03
xr6.xsky130_fd_pr__res_xhigh_po_0p69.ra = 6.129294e-03
xr7.xsky130_fd_pr__res_xhigh_po_0p69.ra = 1.587081e+00
xr8.xsky130_fd_pr__res_xhigh_po_0p69.ra = 1.205085e+00
xr9.xsky130_fd_pr__res_xhigh_po_0p69.ra = 1.068667e-02
Doing analysis at TEMP = 85.000000 and TNOM = 27.000000


No. of Data Rows : 91
Note: Starting true gmin stepping
Trying gmin =   1.0000E-03 Note: One successful gmin step
Trying gmin =   1.0000E-04 Note: One successful gmin step
Trying gmin =   1.0000E-05 Note: One successful gmin step
Trying gmin =   1.0000E-06 Note: One successful gmin step
Trying gmin =   1.0000E-07 Note: One successful gmin step
Trying gmin =   1.0000E-08 Warning: Further gmin increment
Trying gmin =   5.6234E-08 Note: One successful gmin step
Trying gmin =   2.3714E-08 Warning: Further gmin increment
Trying gmin =   4.5316E-08 Warning: Further gmin increment
Trying gmin =   5.3280E-08 Warning: Further gmin increment
Trying gmin =   5.5481E-08 Warning: Further gmin increment
Trying gmin =   5.6045E-08 Warning: Further gmin increment
Trying gmin =   5.6187E-08 Note: One successful gmin step
Trying gmin =   5.6116E-08 Warning: Further gmin increment
Trying gmin =   5.6169E-08 Note: One successful gmin step
Trying gmin =   5.6142E-08 Note: One successful gmin step
Trying gmin =   5.6102E-08 Warning: Further gmin increment
Trying gmin =   5.6132E-08 Warning: Further gmin increment
Trying gmin =   5.6140E-08 Note: One successful gmin step
Trying gmin =   5.6136E-08 Note: One successful gmin step
Trying gmin =   5.6130E-08 Warning: Further gmin increment
Trying gmin =   5.6135E-08 Note: One successful gmin step
Trying gmin =   5.6133E-08 Warning: Last gmin step failed
Error: -7.67446e+159, 2 out of range for ^
Warning: True gmin stepping failed
Note: Starting dynamic gmin stepping
Trying gmin =   1.0000E-03 Note: One successful gmin step
Trying gmin =   1.0000E-04 Note: One successful gmin step
Trying gmin =   1.0000E-05 Warning: Further gmin increment
Trying gmin =   5.6234E-05 Note: One successful gmin step
Trying gmin =   2.3714E-05 Note: One successful gmin step
Trying gmin =   6.4938E-06 Warning: Further gmin increment
Trying gmin =   1.7154E-05 Note: One successful gmin step
Trying gmin =   1.0554E-05 Warning: Further gmin increment
Trying gmin =   1.5193E-05 Note: One successful gmin step
Trying gmin =   1.2663E-05 Warning: Further gmin increment
Trying gmin =   1.4517E-05 Note: One successful gmin step
Trying gmin =   1.3558E-05 Note: One successful gmin step
Trying gmin =   1.2238E-05 Note: One successful gmin step
Trying gmin =   1.0495E-05 Note: One successful gmin step
Trying gmin =   8.3340E-06 Note: One successful gmin step
Trying gmin =   5.8977E-06 Note: One successful gmin step
Trying gmin =   3.5110E-06 Note: One successful gmin step
Trying gmin =   1.6127E-06 Note: One successful gmin step
Trying gmin =   5.0203E-07 Note: One successful gmin step
Trying gmin =   8.7195E-08 Warning: Further gmin increment
Trying gmin =   3.2409E-07 Note: One successful gmin step
Trying gmin =   1.6811E-07 Warning: Further gmin increment
Trying gmin =   2.7504E-07 Note: One successful gmin step
Trying gmin =   2.1502E-07 Warning: Further gmin increment
Trying gmin =   2.5862E-07 Note: One successful gmin step
Trying gmin =   2.3582E-07 Warning: Further gmin increment
Trying gmin =   2.5272E-07 Warning: Further gmin increment
Trying gmin =   2.5714E-07 Warning: Further gmin increment
Trying gmin =   2.5825E-07 Note: One successful gmin step
Trying gmin =   2.5769E-07 Warning: Further gmin increment
Trying gmin =   2.5811E-07 Warning: Further gmin increment
Trying gmin =   2.5822E-07 Note: One successful gmin step
Trying gmin =   2.5816E-07 Warning: Further gmin increment
Trying gmin =   2.5820E-07 Note: One successful gmin step
Trying gmin =   2.5818E-07 Warning: Further gmin increment
Trying gmin =   2.5820E-07 Note: One successful gmin step
Trying gmin =   2.5819E-07 Warning: Last gmin step failed
Note: Dynamic gmin stepping completed
 Reference value :  2.80000e+00Note: Starting true gmin stepping
Trying gmin =   1.0000E-03 Note: One successful gmin step
Trying gmin =   1.0000E-04 Note: One successful gmin step
Trying gmin =   1.0000E-05 Note: One successful gmin step
Trying gmin =   1.0000E-06 Note: One successful gmin step
Trying gmin =   1.0000E-07 Note: One successful gmin step
Trying gmin =   1.0000E-08 Warning: Further gmin increment
Trying gmin =   5.6234E-08 Note: One successful gmin step
Trying gmin =   2.3714E-08 Note: One successful gmin step
Trying gmin =   6.4938E-09 Warning: Further gmin increment
Trying gmin =   1.7154E-08 Note: One successful gmin step
Trying gmin =   1.0554E-08 Note: One successful gmin step
Trying gmin =   5.0937E-09 Note: One successful gmin step
Trying gmin =   1.7077E-09 Note: One successful gmin step
Trying gmin =   3.3152E-10 Note: One successful gmin step
Trying gmin =   3.3152E-11 Note: One successful gmin step
Trying gmin =   3.3152E-12 Note: One successful gmin step
Trying gmin =   1.0000E-12 Note: One successful gmin step
Note: True gmin stepping completed
Note: Starting true gmin stepping
Trying gmin =   1.0000E-03 Note: One successful gmin step
Trying gmin =   1.0000E-04 Note: One successful gmin step
Trying gmin =   1.0000E-05 Note: One successful gmin step
Trying gmin =   1.0000E-06 Note: One successful gmin step
Trying gmin =   1.0000E-07 Note: One successful gmin step
Trying gmin =   1.0000E-08 Note: One successful gmin step
Trying gmin =   3.1623E-09 Warning: Further gmin increment
Trying gmin =   7.4989E-09 Note: One successful gmin step
Trying gmin =   4.8697E-09 Note: One successful gmin step
Trying gmin =   2.5483E-09 Note: One successful gmin step
Trying gmin =   9.6466E-10 Note: One successful gmin step
Trying gmin =   2.2468E-10 Note: One successful gmin step
Trying gmin =   2.5255E-11 Note: One successful gmin step
Trying gmin =   2.5255E-12 Note: One successful gmin step
Trying gmin =   1.0000E-12 Note: One successful gmin step
Note: True gmin stepping completed
 Reference value :  1.08000e+00pm                  =  -9.133950e+01
Doing analysis at TEMP = 85.000000 and TNOM = 27.000000


No. of Data Rows : 91
psrr100             =  -5.403489e+01
psrr100k            =  -2.590538e+01
Doing analysis at TEMP = 85.000000 and TNOM = 27.000000


No. of Data Rows : 86
temp_coeff = 1.167398e+02
Doing analysis at TEMP = 85.000000 and TNOM = 27.000000


No. of Data Rows : 141
vldo_sup_2          =  1.984711e+00
vldo_sup_2_8        =  2.785311e+00
line_reg = 1.000750e+00
Note: No ".plot", ".print", or ".fourier" lines; no simulations run
vin                 =  1.779971e+00
dropout = 1.597100e-02
