Note: Starting true gmin stepping
Trying gmin =   1.0000E-03 Note: One successful gmin step
Trying gmin =   1.0000E-04 Note: One successful gmin step
Trying gmin =   1.0000E-05 Note: One successful gmin step
Trying gmin =   1.0000E-06 Note: One successful gmin step
Trying gmin =   1.0000E-07 Note: One successful gmin step
Trying gmin =   1.0000E-08 Warning: Further gmin increment
Trying gmin =   5.6234E-08 Warning: Further gmin increment
Trying gmin =   8.6596E-08 Note: One successful gmin step
Trying gmin =   7.4989E-08 Note: One successful gmin step
Trying gmin =   6.0430E-08 Note: One successful gmin step
Trying gmin =   4.3714E-08 Note: One successful gmin step
Trying gmin =   2.6896E-08 Note: One successful gmin step
Trying gmin =   1.2980E-08 Note: One successful gmin step
Trying gmin =   4.3518E-09 Note: One successful gmin step
Trying gmin =   8.4481E-10 Note: One successful gmin step
Trying gmin =   8.4481E-11 Note: One successful gmin step
Trying gmin =   8.4481E-12 Note: One successful gmin step
Trying gmin =   1.0000E-12 Note: One successful gmin step
Note: True gmin stepping completed
 Reference value :  0.00000e+00
No compatibility mode selected!


Circuit: * ldo netlist 

Doing analysis at TEMP = 0.000000 and TNOM = 27.000000


No. of Data Rows : 1
bg_out = 5.730415e-01
inn = 7.750362e-01
inp = 7.744789e-01
l1#branch = 0.000000e+00
ldo_out = 8.655462e-01
m.xm1.msky130_fd_pr__nfet_g5v0d10v5#body = 1.277868e-11
m.xm1.msky130_fd_pr__nfet_g5v0d10v5#dbody = 3.121547e-11
m.xm1.msky130_fd_pr__nfet_g5v0d10v5#sbody = 7.120575e-12
m.xm2.msky130_fd_pr__pfet_g5v0d10v5#body = 2.100000e+00
m.xm2.msky130_fd_pr__pfet_g5v0d10v5#dbody = 2.100000e+00
m.xm2.msky130_fd_pr__pfet_g5v0d10v5#sbody = 2.100000e+00
m.xm3.msky130_fd_pr__pfet_g5v0d10v5#body = 2.100000e+00
m.xm3.msky130_fd_pr__pfet_g5v0d10v5#dbody = 2.100000e+00
m.xm3.msky130_fd_pr__pfet_g5v0d10v5#sbody = 2.100000e+00
m.xm4.msky130_fd_pr__pfet_g5v0d10v5#body = 2.100000e+00
m.xm4.msky130_fd_pr__pfet_g5v0d10v5#dbody = 2.100000e+00
m.xm4.msky130_fd_pr__pfet_g5v0d10v5#sbody = 2.100000e+00
m.xm5.msky130_fd_pr__pfet_g5v0d10v5#body = 2.100000e+00
m.xm5.msky130_fd_pr__pfet_g5v0d10v5#dbody = 2.100000e+00
m.xm5.msky130_fd_pr__pfet_g5v0d10v5#sbody = 2.100000e+00
m.xm6.msky130_fd_pr__nfet_g5v0d10v5#body = 1.084076e-11
m.xm6.msky130_fd_pr__nfet_g5v0d10v5#dbody = 2.710190e-11
m.xm6.msky130_fd_pr__nfet_g5v0d10v5#sbody = 5.420383e-12
m.xm7.msky130_fd_pr__pfet_g5v0d10v5#body = 2.100000e+00
m.xm7.msky130_fd_pr__pfet_g5v0d10v5#dbody = 2.100000e+00
m.xm7.msky130_fd_pr__pfet_g5v0d10v5#sbody = 2.100000e+00
m.xm8.msky130_fd_pr__pfet_g5v0d10v5#body = 2.100000e+00
m.xm8.msky130_fd_pr__pfet_g5v0d10v5#dbody = 2.100000e+00
m.xm8.msky130_fd_pr__pfet_g5v0d10v5#sbody = 2.100000e+00
m.xm9.msky130_fd_pr__nfet_g5v0d10v5#body = 1.578997e-11
m.xm9.msky130_fd_pr__nfet_g5v0d10v5#dbody = 3.945250e-11
m.xm9.msky130_fd_pr__nfet_g5v0d10v5#sbody = 7.917416e-12
m.xm10.msky130_fd_pr__nfet_g5v0d10v5#body = 1.310428e-11
m.xm10.msky130_fd_pr__nfet_g5v0d10v5#dbody = 3.273827e-11
m.xm10.msky130_fd_pr__nfet_g5v0d10v5#sbody = 6.574570e-12
m.xm11.msky130_fd_pr__pfet_g5v0d10v5#body = 2.100000e+00
m.xm11.msky130_fd_pr__pfet_g5v0d10v5#dbody = 2.100000e+00
m.xm11.msky130_fd_pr__pfet_g5v0d10v5#sbody = 2.100000e+00
m.xm12.msky130_fd_pr__pfet_g5v0d10v5#body = 2.100000e+00
m.xm12.msky130_fd_pr__pfet_g5v0d10v5#dbody = 2.100000e+00
m.xm12.msky130_fd_pr__pfet_g5v0d10v5#sbody = 2.100000e+00
m.xm13.msky130_fd_pr__nfet_g5v0d10v5#body = 1.121449e-14
m.xm13.msky130_fd_pr__nfet_g5v0d10v5#dbody = 2.803615e-14
m.xm13.msky130_fd_pr__nfet_g5v0d10v5#sbody = 5.607312e-15
m.xm14.msky130_fd_pr__pfet_g5v0d10v5#body = 2.100000e+00
m.xm14.msky130_fd_pr__pfet_g5v0d10v5#dbody = 2.100000e+00
m.xm14.msky130_fd_pr__pfet_g5v0d10v5#sbody = 2.100000e+00
m.xm15.msky130_fd_pr__nfet_g5v0d10v5#body = 1.607632e-11
m.xm15.msky130_fd_pr__nfet_g5v0d10v5#dbody = 4.019074e-11
m.xm15.msky130_fd_pr__nfet_g5v0d10v5#sbody = 8.038161e-12
m.xm16.msky130_fd_pr__nfet_g5v0d10v5#body = 3.593807e-11
m.xm16.msky130_fd_pr__nfet_g5v0d10v5#dbody = 7.046915e-11
m.xm16.msky130_fd_pr__nfet_g5v0d10v5#sbody = 3.734506e-11
m.xm17.msky130_fd_pr__pfet_g5v0d10v5#body = 2.100000e+00
m.xm17.msky130_fd_pr__pfet_g5v0d10v5#dbody = 2.100000e+00
m.xm17.msky130_fd_pr__pfet_g5v0d10v5#sbody = 2.100000e+00
m.xm18.msky130_fd_pr__nfet_g5v0d10v5#body = 1.124825e-11
m.xm18.msky130_fd_pr__nfet_g5v0d10v5#dbody = 2.812062e-11
m.xm18.msky130_fd_pr__nfet_g5v0d10v5#sbody = 5.624131e-12
m.xm19.msky130_fd_pr__nfet_g5v0d10v5#body = 1.358022e-11
m.xm19.msky130_fd_pr__nfet_g5v0d10v5#dbody = 3.321931e-11
m.xm19.msky130_fd_pr__nfet_g5v0d10v5#sbody = 7.521342e-12
m.xm20.msky130_fd_pr__nfet_g5v0d10v5#body = 1.085748e-11
m.xm20.msky130_fd_pr__nfet_g5v0d10v5#dbody = 2.714370e-11
m.xm20.msky130_fd_pr__nfet_g5v0d10v5#sbody = 5.428747e-12
m.xm22.msky130_fd_pr__nfet_g5v0d10v5#body = 3.656416e-13
m.xm22.msky130_fd_pr__nfet_g5v0d10v5#dbody = 9.141032e-13
m.xm22.msky130_fd_pr__nfet_g5v0d10v5#sbody = 1.828217e-13
m.xm24.msky130_fd_pr__pfet_g5v0d10v5#body = 2.100000e+00
m.xm24.msky130_fd_pr__pfet_g5v0d10v5#dbody = 2.100000e+00
m.xm24.msky130_fd_pr__pfet_g5v0d10v5#sbody = 2.100000e+00
m.xm26.msky130_fd_pr__pfet_g5v0d10v5#body = 2.100000e+00
m.xm26.msky130Note: Starting true gmin stepping
Trying gmin =   1.0000E-03 Note: One successful gmin step
Trying gmin =   1.0000E-04 Note: One successful gmin step
Trying gmin =   1.0000E-05 Note: One successful gmin step
Trying gmin =   1.0000E-06 Note: One successful gmin step
Trying gmin =   1.0000E-07 Note: One successful gmin step
Trying gmin =   1.0000E-08 Warning: Further gmin increment
Trying gmin =   5.6234E-08 Warning: Further gmin increment
Trying gmin =   8.6596E-08 Note: One successful gmin step
Trying gmin =   7.4989E-08 Note: One successful gmin step
Trying gmin =   6.0430E-08 Note: One successful gmin step
Trying gmin =   4.3714E-08 Note: One successful gmin step
Trying gmin =   2.6896E-08 Note: One successful gmin step
Trying gmin =   1.2980E-08 Note: One successful gmin step
Trying gmin =   4.3518E-09 Note: One successful gmin step
Trying gmin =   8.4481E-10 Note: One successful gmin step
Trying gmin =   8.4481E-11 Note: One successful gmin step
Trying gmin =   8.4481E-12 Note: One successful gmin step
Trying gmin =   1.0000E-12 Note: One successful gmin step
Note: True gmin stepping completed
_fd_pr__pfet_g5v0d10v5#dbody = 2.100000e+00
m.xm26.msky130_fd_pr__pfet_g5v0d10v5#sbody = 2.100000e+00
mir = 9.930406e-01
net1 = 5.663524e-01
net2 = 1.286088e+00
net3 = 5.668061e-01
net4 = 2.924609e-02
net5 = 1.057163e+00
net6 = 8.672532e-01
net7 = 5.663701e-01
net8 = 1.047442e+00
net9 = 1.262297e+00
net10 = 8.970981e-04
net11 = 8.998583e-01
net12 = 8.998583e-01
net13 = 0.000000e+00
out = 8.998583e-01
pos = 5.757945e-01
q.xq2.qsky130_fd_pr__pnp_05v5_w0p68l0p68#collcx = 7.191483e-08
q.xq3.qsky130_fd_pr__pnp_05v5_w0p68l0p68#collcx = 7.058662e-08
q.xq4.qsky130_fd_pr__pnp_05v5_w0p68l0p68#collcx = 7.058662e-08
q.xq8.qsky130_fd_pr__pnp_05v5_w0p68l0p68#collcx = 7.058662e-08
q.xq10.qsky130_fd_pr__pnp_05v5_w0p68l0p68#collcx = 7.058662e-08
q.xq12.qsky130_fd_pr__pnp_05v5_w0p68l0p68#collcx = 7.058662e-08
q.xq14.qsky130_fd_pr__pnp_05v5_w0p68l0p68#collcx = 7.058662e-08
q.xq16.qsky130_fd_pr__pnp_05v5_w0p68l0p68#collcx = 7.058662e-08
q.xq18.qsky130_fd_pr__pnp_05v5_w0p68l0p68#collcx = 7.058662e-08
vb = 8.685968e-01
vdd = 2.100000e+00
vs#branch = -4.81340e-02
vt#branch = 0.000000e+00
xc1.a = 0.000000e+00
xc1.b1 = 0.000000e+00
xc3.a = 8.998583e-01
xc3.b1 = 8.998583e-01
xr1.xsky130_fd_pr__res_xhigh_po_0p69.ra = 5.697746e-01
xr2.xsky130_fd_pr__res_xhigh_po_0p69.ra = 5.702125e-01
xr3.xsky130_fd_pr__res_xhigh_po_0p69.ra = 3.481212e-03
xr4.xsky130_fd_pr__res_xhigh_po_0p69.ra = 5.663532e-01
xr5.xsky130_fd_pr__res_xhigh_po_0p69.ra = 3.478416e-03
xr6.xsky130_fd_pr__res_xhigh_po_0p69.ra = 3.521224e-03
xr7.xsky130_fd_pr__res_xhigh_po_0p69.ra = 8.998583e-01
xr8.xsky130_fd_pr__res_xhigh_po_0p69.ra = 5.818552e-01
xr9.xsky130_fd_pr__res_xhigh_po_0p69.ra = 6.176840e-03
Doing analysis at TEMP = 0.000000 and TNOM = 27.000000


No. of Data Rows : 91
Note: Starting true gmin stepping
Trying gmin =   1.0000E-03 Note: One successful gmin step
Trying gmin =   1.0000E-04 Note: One successful gmin step
Trying gmin =   1.0000E-05 Note: One successful gmin step
Trying gmin =   1.0000E-06 Note: One successful gmin step
Trying gmin =   1.0000E-07 Note: One successful gmin step
Trying gmin =   1.0000E-08 Warning: Further gmin increment
Trying gmin =   5.6234E-08 Warning: Further gmin increment
Trying gmin =   8.6596E-08 Note: One successful gmin step
Trying gmin =   7.4989E-08 Note: One successful gmin step
Trying gmin =   6.0430E-08 Note: One successful gmin step
Trying gmin =   4.3714E-08 Note: One successful gmin step
Trying gmin =   2.6896E-08 Note: One successful gmin step
Trying gmin =   1.2980E-08 Note: One successful gmin step
Trying gmin =   4.3518E-09 Note: One successful gmin step
Trying gmin =   8.4481E-10 Note: One successful gmin step
Trying gmin =   8.4481E-11 Note: One successful gmin step
Trying gmin =   8.4481E-12 Note: One successful gmin step
Trying gmin =   1.0000E-12 Note: One successful gmin step
Note: True gmin stepping completed
 Reference value :  1.00000e+00Note: Starting true gmin stepping
Trying gmin =   1.0000E-03 Note: One successful gmin step
Trying gmin =   1.0000E-04 Note: One successful gmin step
Trying gmin =   1.0000E-05 Note: One successful gmin step
Trying gmin =   1.0000E-06 Note: One successful gmin step
Trying gmin =   1.0000E-07 Note: One successful gmin step
Trying gmin =   1.0000E-08 Warning: Further gmin increment
Trying gmin =   5.6234E-08 Note: One successful gmin step
Trying gmin =   2.3714E-08 Warning: Further gmin increment
Trying gmin =   4.5316E-08 Note: One successful gmin step
Trying gmin =   3.2781E-08 Warning: Further gmin increment
Trying gmin =   4.1792E-08 Note: One successful gmin step
Trying gmin =   3.7013E-08 Note: One successful gmin step
Trying gmin =   3.0850E-08 Warning: Further gmin increment
Trying gmin =   3.5366E-08 Note: One successful gmin step
Trying gmin =   3.3031E-08 Warning: Further gmin increment
Trying gmin =   3.4767E-08 Note: One successful gmin step
Trying gmin =   3.3888E-08 Warning: Further gmin increment
Trying gmin =   3.4545E-08 Note: One successful gmin step
Trying gmin =   3.4215E-08 Warning: Further gmin increment
Trying gmin =   3.4462E-08 Warning: Further gmin increment
Trying gmin =   3.4524E-08 Note: One successful gmin step
Trying gmin =   3.4493E-08 Note: One successful gmin step
Trying gmin =   3.4447E-08 Warning: Further gmin increment
Trying gmin =   3.4482E-08 Note: One successful gmin step
Trying gmin =   3.4464E-08 Warning: Further gmin increment
Trying gmin =   3.4477E-08 Warning: Further gmin increment
Trying gmin =   3.4481E-08 Note: One successful gmin step
Trying gmin =   3.4479E-08 Warning: Last gmin step failed
Warning: True gmin stepping failed
Note: Starting dynamic gmin stepping
Trying gmin =   1.0000E-03 Note: One successful gmin step
Trying gmin =   1.0000E-04 Note: One successful gmin step
Trying gmin =   1.0000E-05 Note: One successful gmin step
Trying gmin =   1.0000E-06 Warning: Further gmin increment
Trying gmin =   5.6234E-06 Note: One successful gmin step
Trying gmin =   2.3714E-06 Note: One successful gmin step
Trying gmin =   1.0000E-06 Note: One successful gmin step
Trying gmin =   2.7384E-07 Note: One successful gmin step
Trying gmin =   3.9242E-08 Warning: Further gmin increment
Trying gmin =   1.6849E-07 Note: One successful gmin step
Trying gmin =   8.1312E-08 Warning: Further gmin increment
Trying gmin =   1.4043E-07 Warning: Further gmin increment
Trying gmin =   1.6099E-07 Note: One successful gmin step
Trying gmin =   1.5036E-07 Warning: Further gmin increment
Trying gmin =   1.5826E-07 Note: One successful gmin step
Trying gmin =   1.5426E-07 Warning: Further gmin increment
Trying gmin =   1.5725E-07 Warning: Further gmin increment
Trying gmin =   1.5801E-07 Warning: Further gmin increment
Trying gmin =   1.5820E-07 Note: One successful gmin step
Trying gmin =   1.5810E-07 Warning: Further gmin increment
Trying gmin =   1.5817E-07 Note: One successful gmin step
Trying gmin =   1.5814E-07 Note: One successful gmin step
Trying gmin =   1.5808E-07 Warning: Further gmin increment
Trying gmin =   1.5812E-07 Note: One successful gmin step
Trying gmin =   1.5810E-07 Warning: Further gmin increment
Trying gmin =   1.5812E-07 Warning: Last gmin step failed
Warning: Dynamic gmin stepping failed
Note: Starting source stepping
Supplies reduced to   0.0000% Note: One successful source step
Supplies reduced to   0.1000% Note: One successful source step
Supplies reduced to   0.2000% Note: One successful source step
Supplies reduced to   0.3500% Note: One successful source step
Supplies reduced to   0.5750% Note: One successful source step
Supplies reduced to   0.9125% Note: One successful source step
Supplies reduced to   1.4188% Note: One successful source step
Supplies reduced to   2.1781% Note: One successful source step
Supplies reduced to   3.3172% Note: One successful source step
Supplies reduced to   5.0258% Note: One successful source step
Supplies reduced to   7.5887% Note: One successful source step
Supplies reduced to  11.4330% Note: One successful source step
Supplies reduced to  17.1995% Note: One successful source step
Supplies reduced to  25.8493% Supplies reduced to  17.1995% Note: One successful source step
Supplies reduced to  18.1995% Note: One successful source step
Supplies reduced to  19.6995% Note: One successful source step
Supplies reduced to  21.9495% Note: One successful source step
Supplies reduced to  25.3245% Note: One successful source step
Supplies reduced to  30.3870% Note: One successful source step
Supplies reduced to  35.4495% Note: One successful source step
Supplies reduced to  43.0433% Note: One successful source step
Supplies reduced to  54.4339% Note: One successful source step
Supplies reduced to  60.1292% Note: One successful source step
Supplies reduced to  68.6722% Note: One successful source step
Supplies reduced to  81.4866% Note: One successful source step
Supplies reduced to 100.0000% Supplies reduced to  81.4866% Note: One successful source step
Supplies reduced to  82.4866% Note: One successful source step
Supplies reduced to  83.9866% Supplies reduced to  82.4866% Note: One successful source step
Supplies reduced to  82.7116% Note: One successful source step
Supplies reduced to  83.0491% Supplies reduced to  82.7116% Note: One successful source step
Supplies reduced to  82.7622% Note: One successful source step
Supplies reduced to  82.8382% Note: One successful source step
Supplies reduced to  82.9521% Note: One successful source step
Supplies reduced to  83.1229% Supplies reduced to  82.9521% Note: One successful source step
Supplies reduced to  82.9777% Supplies reduced to  82.9521% Note: One successful source step
Supplies reduced to  82.9559% Note: One successful source step
Supplies reduced to  82.9617% Note: One successful source step
Supplies reduced to  82.9704% Note: One successful source step
Supplies reduced to  82.9833% Supplies reduced to  82.9704% Note: One successful source step
Supplies reduced to  82.9723% Note: One successful source step
Supplies reduced to  82.9752% Supplies reduced to  82.9723% Note: One successful source step
Supplies reduced to  82.9727% Note: One successful source step
Supplies reduced to  82.9734% Note: One successful source step
Supplies reduced to  82.9744% Note: One successful source step
Supplies reduced to  82.9759% Supplies reduced to  82.9744% Note: One successful source step
Supplies reduced to  82.9746% Supplies reduced to  82.9744% Note: One successful source step
Supplies reduced to  82.9744% Note: One successful source step
Supplies reduced to  82.9745% Note: One successful source step
Supplies reduced to  82.9745% Supplies reduced to  82.9745% Note: One successful source step
Supplies reduced to  82.9745% Note: One successful source step
Supplies reduced to  82.9745% Note: One successful source step
Supplies reduced to  82.9745% Note: One successful source step
Supplies reduced to  82.9746% Warning: source stepping failed
doAnalyses: Too many iterations without convergence

dc simulation(s) aborted
Error(parse.c--checkvalid): vldo_sup_2_8: zero length vector.
Error: RHS "abs((vldo_sup_2_8-vldo_sup_2)/0.8)" invalid
Error(parse.c--checkvalid): line_reg: zero length vector.
Error(parse.c--checkvalid): vin: zero length vector.
Error: RHS "vin-1.764" invalid
Error(parse.c--checkvalid): dropout: zero length vector.
Error: no such vector dropout
Note: No ".plot", ".print", or ".fourier" lines; no simulations run
pm                  =  9.026569e+01
Doing analysis at TEMP = 0.000000 and TNOM = 27.000000


No. of Data Rows : 91
psrr100             =  -1.438051e+01
psrr100k            =  -1.192189e+01
Doing analysis at TEMP = 0.000000 and TNOM = 27.000000


No. of Data Rows : 86
temp_coeff = 6.469975e+01
Doing analysis at TEMP = 0.000000 and TNOM = 27.000000


Error: measure  vldo_sup_2  (AT) : out of interval
 meas dc vldo_sup_2 find ldo_out at=2 failed!


Error: measure  vldo_sup_2_8  (AT) : out of interval
 meas dc vldo_sup_2_8 find ldo_out at=2.8 failed!


Error: measure  vin  (WHEN) : out of interval
 meas dc vin when v(ldo_out)=1.764 failed!

