 Reference value :  0.00000e+00
No compatibility mode selected!


Circuit: * ldo netlist 

Doing analysis at TEMP = 85.000000 and TNOM = 27.000000


No. of Data Rows : 1
bg_out = 1.093497e+00
inn = 1.052595e+00
inp = 1.052538e+00
l1#branch = 0.000000e+00
ldo_out = 1.797749e+00
m.xm1.msky130_fd_pr__nfet_g5v0d10v5#body = 2.625783e-11
m.xm1.msky130_fd_pr__nfet_g5v0d10v5#dbody = 4.900364e-11
m.xm1.msky130_fd_pr__nfet_g5v0d10v5#sbody = 2.976985e-11
m.xm2.msky130_fd_pr__pfet_g5v0d10v5#body = 2.100000e+00
m.xm2.msky130_fd_pr__pfet_g5v0d10v5#dbody = 2.100000e+00
m.xm2.msky130_fd_pr__pfet_g5v0d10v5#sbody = 2.100000e+00
m.xm3.msky130_fd_pr__pfet_g5v0d10v5#body = 2.100000e+00
m.xm3.msky130_fd_pr__pfet_g5v0d10v5#dbody = 2.100000e+00
m.xm3.msky130_fd_pr__pfet_g5v0d10v5#sbody = 2.100000e+00
m.xm4.msky130_fd_pr__pfet_g5v0d10v5#body = 2.100000e+00
m.xm4.msky130_fd_pr__pfet_g5v0d10v5#dbody = 2.100000e+00
m.xm4.msky130_fd_pr__pfet_g5v0d10v5#sbody = 2.100000e+00
m.xm5.msky130_fd_pr__pfet_g5v0d10v5#body = 2.100000e+00
m.xm5.msky130_fd_pr__pfet_g5v0d10v5#dbody = 2.100000e+00
m.xm5.msky130_fd_pr__pfet_g5v0d10v5#sbody = 2.100000e+00
m.xm6.msky130_fd_pr__nfet_g5v0d10v5#body = 1.932002e-11
m.xm6.msky130_fd_pr__nfet_g5v0d10v5#dbody = 4.829994e-11
m.xm6.msky130_fd_pr__nfet_g5v0d10v5#sbody = 9.660125e-12
m.xm7.msky130_fd_pr__pfet_g5v0d10v5#body = 2.100000e+00
m.xm7.msky130_fd_pr__pfet_g5v0d10v5#dbody = 2.100000e+00
m.xm7.msky130_fd_pr__pfet_g5v0d10v5#sbody = 2.100000e+00
m.xm8.msky130_fd_pr__pfet_g5v0d10v5#body = 2.100000e+00
m.xm8.msky130_fd_pr__pfet_g5v0d10v5#dbody = 2.100000e+00
m.xm8.msky130_fd_pr__pfet_g5v0d10v5#sbody = 2.100000e+00
m.xm9.msky130_fd_pr__nfet_g5v0d10v5#body = 2.438826e-11
m.xm9.msky130_fd_pr__nfet_g5v0d10v5#dbody = 4.723906e-11
m.xm9.msky130_fd_pr__nfet_g5v0d10v5#sbody = 2.592571e-11
m.xm10.msky130_fd_pr__nfet_g5v0d10v5#body = 2.412543e-11
m.xm10.msky130_fd_pr__nfet_g5v0d10v5#dbody = 4.658198e-11
m.xm10.msky130_fd_pr__nfet_g5v0d10v5#sbody = 2.579430e-11
m.xm11.msky130_fd_pr__pfet_g5v0d10v5#body = 2.100000e+00
m.xm11.msky130_fd_pr__pfet_g5v0d10v5#dbody = 2.100000e+00
m.xm11.msky130_fd_pr__pfet_g5v0d10v5#sbody = 2.100000e+00
m.xm12.msky130_fd_pr__pfet_g5v0d10v5#body = 2.100000e+00
m.xm12.msky130_fd_pr__pfet_g5v0d10v5#dbody = 2.100000e+00
m.xm12.msky130_fd_pr__pfet_g5v0d10v5#sbody = 2.100000e+00
m.xm13.msky130_fd_pr__nfet_g5v0d10v5#body = 5.218686e-12
m.xm13.msky130_fd_pr__nfet_g5v0d10v5#dbody = 1.304665e-11
m.xm13.msky130_fd_pr__nfet_g5v0d10v5#sbody = 2.609411e-12
m.xm14.msky130_fd_pr__pfet_g5v0d10v5#body = 2.100000e+00
m.xm14.msky130_fd_pr__pfet_g5v0d10v5#dbody = 2.100000e+00
m.xm14.msky130_fd_pr__pfet_g5v0d10v5#sbody = 2.100000e+00
m.xm15.msky130_fd_pr__nfet_g5v0d10v5#body = 1.108407e-14
m.xm15.msky130_fd_pr__nfet_g5v0d10v5#dbody = 2.770947e-14
m.xm15.msky130_fd_pr__nfet_g5v0d10v5#sbody = 5.542742e-15
m.xm16.msky130_fd_pr__nfet_g5v0d10v5#body = 4.991005e-11
m.xm16.msky130_fd_pr__nfet_g5v0d10v5#dbody = 8.795763e-11
m.xm16.msky130_fd_pr__nfet_g5v0d10v5#sbody = 6.177252e-11
m.xm17.msky130_fd_pr__pfet_g5v0d10v5#body = 2.100000e+00
m.xm17.msky130_fd_pr__pfet_g5v0d10v5#dbody = 2.100000e+00
m.xm17.msky130_fd_pr__pfet_g5v0d10v5#sbody = 2.100000e+00
m.xm18.msky130_fd_pr__nfet_g5v0d10v5#body = 2.087900e-11
m.xm18.msky130_fd_pr__nfet_g5v0d10v5#dbody = 5.217813e-11
m.xm18.msky130_fd_pr__nfet_g5v0d10v5#sbody = 1.043958e-11
m.xm19.msky130_fd_pr__nfet_g5v0d10v5#body = 2.633160e-11
m.xm19.msky130_fd_pr__nfet_g5v0d10v5#dbody = 4.918806e-11
m.xm19.msky130_fd_pr__nfet_g5v0d10v5#sbody = 2.980674e-11
m.xm20.msky130_fd_pr__nfet_g5v0d10v5#body = 1.272913e-11
m.xm20.msky130_fd_pr__nfet_g5v0d10v5#dbody = 3.182274e-11
m.xm20.msky130_fd_pr__nfet_g5v0d10v5#sbody = 6.364639e-12
m.xm22.msky130_fd_pr__nfet_g5v0d10v5#body = 1.161404e-11
m.xm22.msky130_fd_pr__nfet_g5v0d10v5#dbody = 2.903498e-11
m.xm22.msky130_fd_pr__nfet_g5v0d10v5#sbody = 5.807128e-12
m.xm24.msky130_fd_pr__pfet_g5v0d10v5#body = 2.100000e+00
m.xm24.msky130_fd_pr__pfet_g5v0d10v5#dbody = 2.100000e+00
m.xm24.msky130_fd_pr__pfet_g5v0d10v5#sbody = 2.100000e+00
m.xm26.msky130_fd_pr__pfet_g5v0d10v5#body = 2.100000e+00
m.xm26.msky130_fd_pr__pfet_g5v0d10v5#dbody = 2.100000e+00
m.xm26.msky130_fd_pr__pfet_g5v0d10v5#sbody = 2.100000e+00
mir = 1.014885e+00
net1 = 6.225607e-01
net2 = 2.143070e-05
net3 = 6.962885e-01
net4 = 2.457918e-01
net5 = 1.020786e+00
net6 = 8.618492e-01
net7 = 6.962300e-01
net8 = 1.092488e+00
net9 = 1.113515e+00
net10 = 2.610930e-01
net11 = 1.513085e+00
net12 = 1.513085e+00
net13 = 0.000000e+00
out = 1.513085e+00
pos = 1.093758e+00
q.xq2.qsky130_fd_pr__pnp_05v5_w0p68l0p68#collcx = 3.024047e-03
q.xq3.qsky130_fd_pr__pnp_05v5_w0p68l0p68#collcx = 3.805097e-04
q.xq4.qsky130_fd_pr__pnp_05v5_w0p68l0p68#collcx = 3.805097e-04
q.xq8.qsky130_fd_pr__pnp_05v5_w0p68l0p68#collcx = 3.805097e-04
q.xq10.qsky130_fd_pr__pnp_05v5_w0p68l0p68#collcx = 3.805097e-04
q.xq12.qsky130_fd_pr__pnp_05v5_w0p68l0p68#collcx = 3.805097e-04
q.xq14.qsky130_fd_pr__pnp_05v5_w0p68l0p68#collcx = 3.805097e-04
q.xq16.qsky130_fd_pr__pnp_05v5_w0p68l0p68#collcx = 3.805097e-04
q.xq18.qsky130_fd_pr__pnp_05v5_w0p68l0p68#collcx = 3.805097e-04
vb = 8.618671e-01
vdd = 2.100000e+00
vs#branch = -1.88557e-04
vt#branch = 0.000000e+00
xc1.a = 0.000000e+00
xc1.b1 = 0.000000e+00
xc3.a = 1.513085e+00
xc3.b1 = 1.513085e+00
xr1.xsky130_fd_pr__res_xhigh_po_0p69.ra = 7.021509e-01
xr2.xsky130_fd_pr__res_xhigh_po_0p69.ra = 7.022094e-01
xr3.xsky130_fd_pr__res_xhigh_po_0p69.ra = 3.601764e-03
xr4.xsky130_fd_pr__res_xhigh_po_0p69.ra = 6.249459e-01
xr5.xsky130_fd_pr__res_xhigh_po_0p69.ra = 3.601444e-03
xr6.xsky130_fd_pr__res_xhigh_po_0p69.ra = 6.258533e-03
xr7.xsky130_fd_pr__res_xhigh_po_0p69.ra = 1.513085e+00
xr8.xsky130_fd_pr__res_xhigh_po_0p69.ra = 1.103267e+00
xr9.xsky130_fd_pr__res_xhigh_po_0p69.ra = 9.815244e-03
Doing analysis at TEMP = 85.000000 and TNOM = 27.000000


No. of Data Rows : 91
Note: Starting true gmin stepping
Trying gmin =   1.0000E-03 Note: One successful gmin step
Trying gmin =   1.0000E-04 Note: One successful gmin step
Trying gmin =   1.0000E-05 Note: One successful gmin step
Trying gmin =   1.0000E-06 Note: One successful gmin step
Trying gmin =   1.0000E-07 Warning: Further gmin increment
Trying gmin =   5.6234E-07 Note: One successful gmin step
Trying gmin =   2.3714E-07 Note: One successful gmin step
Trying gmin =   6.4938E-08 Warning: Further gmin increment
Trying gmin =   1.7154E-07 Note: One successful gmin step
Trying gmin =   1.0554E-07 Note: One successful gmin step
Trying gmin =   5.0937E-08 Warning: Further gmin increment
Trying gmin =   8.7970E-08 Warning: Further gmin increment
Trying gmin =   1.0085E-07 Warning: Further gmin increment
Trying gmin =   1.0435E-07 Note: One successful gmin step
Trying gmin =   1.0258E-07 Warning: Further gmin increment
Trying gmin =   1.0391E-07 Note: One successful gmin step
Trying gmin =   1.0324E-07 Note: One successful gmin step
Trying gmin =   1.0226E-07 Warning: Further gmin increment
Trying gmin =   1.0299E-07 Note: One successful gmin step
Trying gmin =   1.0262E-07 Warning: Further gmin increment
Trying gmin =   1.0290E-07 Warning: Further gmin increment
Trying gmin =   1.0297E-07 Warning: Further gmin increment
Trying gmin =   1.0299E-07 Note: One successful gmin step
Trying gmin =   1.0298E-07 Warning: Further gmin increment
Trying gmin =   1.0299E-07 Note: One successful gmin step
Trying gmin =   1.0298E-07 Note: One successful gmin step
Trying gmin =   1.0298E-07 Warning: Last gmin step failed
Warning: True gmin stepping failed
Note: Starting dynamic gmin stepping
Trying gmin =   1.0000E-03 Note: One successful gmin step
Trying gmin =   1.0000E-04 Note: One successful gmin step
Trying gmin =   1.0000E-05 Note: One successful gmin step
Trying gmin =   1.0000E-06 Note: One successful gmin step
Trying gmin =   1.0000E-07 Warning: Further gmin increment
Trying gmin =   5.6234E-07 Note: One successful gmin step
Trying gmin =   2.3714E-07 Warning: Further gmin increment
Trying gmin =   4.5316E-07 Warning: Further gmin increment
Trying gmin =   5.3280E-07 Note: One successful gmin step
Trying gmin =   4.9137E-07 Note: One successful gmin step
Trying gmin =   4.3518E-07 Warning: Further gmin increment
Trying gmin =   4.7668E-07 Warning: Further gmin increment
Trying gmin =   4.8765E-07 Note: One successful gmin step
Trying gmin =   4.8213E-07 Note: One successful gmin step
Trying gmin =   4.7397E-07 Warning: Further gmin increment
Trying gmin =   4.8008E-07 Note: One successful gmin step
Trying gmin =   4.7701E-07 Warning: Further gmin increment
Trying gmin =   4.7931E-07 Note: One successful gmin step
Trying gmin =   4.7816E-07 Note: One successful gmin step
Trying gmin =   4.7644E-07 Warning: Further gmin increment
Trying gmin =   4.7773E-07 Warning: Further gmin increment
Trying gmin =   4.7805E-07 Note: One successful gmin step
Trying gmin =   4.7789E-07 Note: One successful gmin step
Trying gmin =   4.7765E-07 Warning: Further gmin increment
Trying gmin =   4.7783E-07 Note: One successful gmin step
Trying gmin =   4.7774E-07 Warning: Further gmin increment
Trying gmin =   4.7781E-07 Note: One successful gmin step
Trying gmin =   4.7778E-07 Note: One successful gmin step
Trying gmin =   4.7772E-07 Warning: Further gmin increment
Trying gmin =   4.7776E-07 Note: One successful gmin step
Trying gmin =   4.7774E-07 Warning: Last gmin step failed
Warning: Dynamic gmin stepping failed
Note: Starting source stepping
Supplies reduced to   0.0000% Note: One successful source step
Supplies reduced to   0.1000% Note: One successful source step
Supplies reduced to   0.2000% Note: One successful source step
Supplies reduced to   0.3500% Note: One successful source step
Supplies reduced to   0.5750% Note: One successful source step
Supplies reduced to   0.9125% Note: One successful source step
Supplies reduced to   1.4188% Note: One successful source step
Supplies reduced to   2.1781% Note: One successful source step
Supplies reduced to   3.3172% Note: One successful source step
Supplies reduced to   5.0258% Note: One successful source step
Supplies reduced to   7.5887% Note: One successful source step
Supplies reduced to  11.4330% Note: One successful source step
Supplies reduced to  17.1995% Note: One successful source step
Supplies reduced to  25.8493% Supplies reduced to  17.1995% Note: One successful source step
Supplies reduced to  18.1995% Note: One successful source step
Supplies reduced to  19.6995% Note: One successful source step
Supplies reduced to  21.9495% Supplies reduced to  19.6995% Note: One successful source step
Supplies reduced to  19.9245% Note: One successful source step
Supplies reduced to  20.2620% Note: One successful source step
Supplies reduced to  20.7683% Note: One successful source step
Supplies reduced to  21.5276% Note: One successful source step
Supplies reduced to  22.6667% Supplies reduced to  21.5276% Note: One successful source step
Supplies reduced to  21.6985% Note: One successful source step
Supplies reduced to  21.9548% Note: One successful source step
Supplies reduced to  22.3392% Note: One successful source step
Supplies reduced to  22.9159% Note: One successful source step
Supplies reduced to  23.7808% Note: One successful source step
Supplies reduced to  25.0783% Note: One successful source step
Supplies reduced to  27.0245% Note: One successful source step
Supplies reduced to  29.9438% Note: One successful source step
Supplies reduced to  34.3227% Note: One successful source step
Supplies reduced to  40.8911% Note: One successful source step
Supplies reduced to  50.7438% Note: One successful source step
Supplies reduced to  65.5227% Supplies reduced to  50.7438% Note: One successful source step
Supplies reduced to  51.7438% Note: One successful source step
Supplies reduced to  53.2438% Note: One successful source step
Supplies reduced to  55.4938% Note: One successful source step
Supplies reduced to  58.8688% Note: One successful source step
Supplies reduced to  63.9313% Note: One successful source step
Supplies reduced to  71.5250% Supplies reduced to  63.9313% Note: One successful source step
Supplies reduced to  64.9313% Supplies reduced to  63.9313% Note: One successful source step
Supplies reduced to  64.0813% Note: One successful source step
Supplies reduced to  64.3063% Supplies reduced to  64.0813% Note: One successful source step
Supplies reduced to  64.1150% Note: One successful source step
Supplies reduced to  64.1656% Supplies reduced to  64.1150% Note: One successful source step
Supplies reduced to  64.1226% Note: One successful source step
Supplies reduced to  64.1340% Note: One successful source step
Supplies reduced to  64.1511% Supplies reduced to  64.1340% Note: One successful source step
Supplies reduced to  64.1366% Note: One successful source step
Supplies reduced to  64.1404% Supplies reduced to  64.1366% Note: One successful source step
Supplies reduced to  64.1371% Note: One successful source step
Supplies reduced to  64.1380% Note: One successful source step
Supplies reduced to  64.1393% Supplies reduced to  64.1380% Note: One successful source step
Supplies reduced to  64.1382% Note: One successful source step
Supplies reduced to  64.1385% Note: One successful source step
Supplies reduced to  64.1389% Note: One successful source step
Supplies reduced to  64.1396% Supplies reduced to  64.1389% Note: One successful source step
Supplies reduced to  64.1390% Note: One successful source step
Supplies reduced to  64.1392% Supplies reduced to  64.1390% Note: One successful source step
Supplies reduced to  64.1390% Note: One successful source step
Supplies reduced to  64.1391% Note: One successful source step
Supplies reduced to  64.1391% Note: One successful source step
Supplies reduced to  64.1392% Warning: source stepping failed
doAnalyses: Too many iterations without convergence

dc simulation(s) aborted
Error(parse.c--checkvalid): vldo_sup_2_8: zero length vector.
Error: RHS "abs((vldo_sup_2_8-vldo_sup_2)/0.8)" invalid
Error(parse.c--checkvalid): line_reg: zero length vector.
Error(parse.c--checkvalid): vin: zero length vector.
Error: RHS "vin-1.764" invalid
Error(parse.c--checkvalid): dropout: zero length vector.
Error: no such vector dropout
Note: No ".plot", ".print", or ".fourier" lines; no simulations run
pm                  =  6.819883e+01
Doing analysis at TEMP = 85.000000 and TNOM = 27.000000


No. of Data Rows : 91
psrr100             =  -5.020769e+01
psrr100k            =  -2.588128e+01
Doing analysis at TEMP = 85.000000 and TNOM = 27.000000


No. of Data Rows : 86
temp_coeff = 3.525470e+01
Doing analysis at TEMP = 85.000000 and TNOM = 27.000000


Error: measure  vldo_sup_2  (AT) : out of interval
 meas dc vldo_sup_2 find ldo_out at=2 failed!


Error: measure  vldo_sup_2_8  (AT) : out of interval
 meas dc vldo_sup_2_8 find ldo_out at=2.8 failed!


Error: measure  vin  (WHEN) : out of interval
 meas dc vin when v(ldo_out)=1.764 failed!

