Note: Starting true gmin stepping
Trying gmin =   1.0000E-03 Note: One successful gmin step
Trying gmin =   1.0000E-04 Note: One successful gmin step
Trying gmin =   1.0000E-05 Note: One successful gmin step
Trying gmin =   1.0000E-06 Note: One successful gmin step
Trying gmin =   1.0000E-07 Note: One successful gmin step
Trying gmin =   1.0000E-08 Note: One successful gmin step
Trying gmin =   1.0000E-09 Note: One successful gmin step
Trying gmin =   1.0000E-10 Note: One successful gmin step
Trying gmin =   1.0000E-11 Note: One successful gmin step
Trying gmin =   1.0000E-12 Note: One successful gmin step
Trying gmin =   1.0000E-12 Note: One successful gmin step
Note: True gmin stepping completed
 Reference value :  0.00000e+00
No compatibility mode selected!


Circuit: * ldo netlist 

Doing analysis at TEMP = 0.000000 and TNOM = 27.000000


No. of Data Rows : 1
bg_out = 1.192167e+00
inn = 1.259112e+00
inp = 1.259084e+00
l1#branch = 0.000000e+00
ldo_out = 1.792381e+00
m.xm1.msky130_fd_pr__nfet_g5v0d10v5#body = 1.735755e-11
m.xm1.msky130_fd_pr__nfet_g5v0d10v5#dbody = 3.728780e-11
m.xm1.msky130_fd_pr__nfet_g5v0d10v5#sbody = 1.478484e-11
m.xm2.msky130_fd_pr__pfet_g5v0d10v5#body = 2.300000e+00
m.xm2.msky130_fd_pr__pfet_g5v0d10v5#dbody = 2.300000e+00
m.xm2.msky130_fd_pr__pfet_g5v0d10v5#sbody = 2.300000e+00
m.xm3.msky130_fd_pr__pfet_g5v0d10v5#body = 2.300000e+00
m.xm3.msky130_fd_pr__pfet_g5v0d10v5#dbody = 2.300000e+00
m.xm3.msky130_fd_pr__pfet_g5v0d10v5#sbody = 2.300000e+00
m.xm4.msky130_fd_pr__pfet_g5v0d10v5#body = 2.300000e+00
m.xm4.msky130_fd_pr__pfet_g5v0d10v5#dbody = 2.300000e+00
m.xm4.msky130_fd_pr__pfet_g5v0d10v5#sbody = 2.300000e+00
m.xm5.msky130_fd_pr__pfet_g5v0d10v5#body = 2.300000e+00
m.xm5.msky130_fd_pr__pfet_g5v0d10v5#dbody = 2.300000e+00
m.xm5.msky130_fd_pr__pfet_g5v0d10v5#sbody = 2.300000e+00
m.xm6.msky130_fd_pr__nfet_g5v0d10v5#body = 1.260319e-11
m.xm6.msky130_fd_pr__nfet_g5v0d10v5#dbody = 3.150797e-11
m.xm6.msky130_fd_pr__nfet_g5v0d10v5#sbody = 6.301601e-12
m.xm7.msky130_fd_pr__pfet_g5v0d10v5#body = 2.300000e+00
m.xm7.msky130_fd_pr__pfet_g5v0d10v5#dbody = 2.300000e+00
m.xm7.msky130_fd_pr__pfet_g5v0d10v5#sbody = 2.300000e+00
m.xm8.msky130_fd_pr__pfet_g5v0d10v5#body = 2.300000e+00
m.xm8.msky130_fd_pr__pfet_g5v0d10v5#dbody = 2.300000e+00
m.xm8.msky130_fd_pr__pfet_g5v0d10v5#sbody = 2.300000e+00
m.xm9.msky130_fd_pr__nfet_g5v0d10v5#body = 1.767805e-11
m.xm9.msky130_fd_pr__nfet_g5v0d10v5#dbody = 3.962526e-11
m.xm9.msky130_fd_pr__nfet_g5v0d10v5#sbody = 1.340889e-11
m.xm10.msky130_fd_pr__nfet_g5v0d10v5#body = 1.752034e-11
m.xm10.msky130_fd_pr__nfet_g5v0d10v5#dbody = 3.923098e-11
m.xm10.msky130_fd_pr__nfet_g5v0d10v5#sbody = 1.333003e-11
m.xm11.msky130_fd_pr__pfet_g5v0d10v5#body = 2.300000e+00
m.xm11.msky130_fd_pr__pfet_g5v0d10v5#dbody = 2.300000e+00
m.xm11.msky130_fd_pr__pfet_g5v0d10v5#sbody = 2.300000e+00
m.xm12.msky130_fd_pr__pfet_g5v0d10v5#body = 2.300000e+00
m.xm12.msky130_fd_pr__pfet_g5v0d10v5#dbody = 2.300000e+00
m.xm12.msky130_fd_pr__pfet_g5v0d10v5#sbody = 2.300000e+00
m.xm13.msky130_fd_pr__nfet_g5v0d10v5#body = 2.284913e-12
m.xm13.msky130_fd_pr__nfet_g5v0d10v5#dbody = 5.712273e-12
m.xm13.msky130_fd_pr__nfet_g5v0d10v5#sbody = 1.142465e-12
m.xm14.msky130_fd_pr__pfet_g5v0d10v5#body = 2.300000e+00
m.xm14.msky130_fd_pr__pfet_g5v0d10v5#dbody = 2.300000e+00
m.xm14.msky130_fd_pr__pfet_g5v0d10v5#sbody = 2.300000e+00
m.xm15.msky130_fd_pr__nfet_g5v0d10v5#body = 4.527767e-16
m.xm15.msky130_fd_pr__nfet_g5v0d10v5#dbody = 1.131923e-15
m.xm15.msky130_fd_pr__nfet_g5v0d10v5#sbody = 2.264066e-16
m.xm16.msky130_fd_pr__nfet_g5v0d10v5#body = 4.448902e-11
m.xm16.msky130_fd_pr__nfet_g5v0d10v5#dbody = 7.974463e-11
m.xm16.msky130_fd_pr__nfet_g5v0d10v5#sbody = 5.372243e-11
m.xm17.msky130_fd_pr__pfet_g5v0d10v5#body = 2.300000e+00
m.xm17.msky130_fd_pr__pfet_g5v0d10v5#dbody = 2.300000e+00
m.xm17.msky130_fd_pr__pfet_g5v0d10v5#sbody = 2.300000e+00
m.xm18.msky130_fd_pr__nfet_g5v0d10v5#body = 1.154231e-11
m.xm18.msky130_fd_pr__nfet_g5v0d10v5#dbody = 2.885575e-11
m.xm18.msky130_fd_pr__nfet_g5v0d10v5#sbody = 5.771164e-12
m.xm19.msky130_fd_pr__nfet_g5v0d10v5#body = 1.740507e-11
m.xm19.msky130_fd_pr__nfet_g5v0d10v5#dbody = 3.740661e-11
m.xm19.msky130_fd_pr__nfet_g5v0d10v5#sbody = 1.480860e-11
m.xm20.msky130_fd_pr__nfet_g5v0d10v5#body = 1.322696e-11
m.xm20.msky130_fd_pr__nfet_g5v0d10v5#dbody = 3.306738e-11
m.xm20.msky130_fd_pr__nfet_g5v0d10v5#sbody = 6.613489e-12
m.xm22.msky130_fd_pr__nfet_g5v0d10v5#body = 3.053069e-12
m.xm22.msky130_fd_pr__nfet_g5v0d10v5#dbody = 7.632668e-12
m.xm22.msky130_fd_pr__nfet_g5v0d10v5#sbody = 1.526539e-12
m.xm24.msky130_fd_pr__pfet_g5v0d10v5#body = 2.300000e+00
m.xm24.msky130_fd_pr__pfet_g5v0d10v5#dbody = 2.300000e+00
m.xm24.msky130_fd_pr__pfet_g5v0d10v5#sbody = 2.300000e+00
m.xm26.msky130_fd_pr__pfet_g5v0d10v5#body = 2.300000e+00
m.xm26.msky130Note: Starting true gmin stepping
Trying gmin =   1.0000E-03 Note: One successful gmin step
Trying gmin =   1.0000E-04 Note: One successful gmin step
Trying gmin =   1.0000E-05 Note: One successful gmin step
Trying gmin =   1.0000E-06 Note: One successful gmin step
Trying gmin =   1.0000E-07 Note: One successful gmin step
Trying gmin =   1.0000E-08 Note: One successful gmin step
Trying gmin =   1.0000E-09 Note: One successful gmin step
Trying gmin =   1.0000E-10 Note: One successful gmin step
Trying gmin =   1.0000E-11 Note: One successful gmin step
Trying gmin =   1.0000E-12 Note: One successful gmin step
Trying gmin =   1.0000E-12 Note: One successful gmin step
Note: True gmin stepping completed
_fd_pr__pfet_g5v0d10v5#dbody = 2.300000e+00
m.xm26.msky130_fd_pr__pfet_g5v0d10v5#sbody = 2.300000e+00
mir = 1.144356e+00
net1 = 7.690026e-01
net2 = 3.620061e-05
net3 = 8.225259e-01
net4 = 2.442378e-01
net5 = 1.148158e+00
net6 = 1.008248e+00
net7 = 8.224970e-01
net8 = 1.218829e+00
net9 = 1.231446e+00
net10 = 1.827912e-01
net11 = 9.233825e-01
net12 = 9.233825e-01
net13 = 0.000000e+00
out = 9.233825e-01
pos = 1.192279e+00
q.xq2.qsky130_fd_pr__pnp_05v5_w0p68l0p68#collcx = 1.781434e-03
q.xq3.qsky130_fd_pr__pnp_05v5_w0p68l0p68#collcx = 2.241242e-04
q.xq4.qsky130_fd_pr__pnp_05v5_w0p68l0p68#collcx = 2.241242e-04
q.xq8.qsky130_fd_pr__pnp_05v5_w0p68l0p68#collcx = 2.241242e-04
q.xq10.qsky130_fd_pr__pnp_05v5_w0p68l0p68#collcx = 2.241242e-04
q.xq12.qsky130_fd_pr__pnp_05v5_w0p68l0p68#collcx = 2.241242e-04
q.xq14.qsky130_fd_pr__pnp_05v5_w0p68l0p68#collcx = 2.241242e-04
q.xq16.qsky130_fd_pr__pnp_05v5_w0p68l0p68#collcx = 2.241242e-04
q.xq18.qsky130_fd_pr__pnp_05v5_w0p68l0p68#collcx = 2.241242e-04
vb = 1.058155e+00
vdd = 2.300000e+00
vs#branch = -9.96914e-02
vt#branch = 0.000000e+00
xc1.a = 0.000000e+00
xc1.b1 = 0.000000e+00
xc3.a = 9.233825e-01
xc3.b1 = 9.233825e-01
xr1.xsky130_fd_pr__res_xhigh_po_0p69.ra = 8.297270e-01
xr2.xsky130_fd_pr__res_xhigh_po_0p69.ra = 8.297559e-01
xr3.xsky130_fd_pr__res_xhigh_po_0p69.ra = 5.158584e-03
xr4.xsky130_fd_pr__res_xhigh_po_0p69.ra = 7.711955e-01
xr5.xsky130_fd_pr__res_xhigh_po_0p69.ra = 5.158390e-03
xr6.xsky130_fd_pr__res_xhigh_po_0p69.ra = 7.701042e-03
xr7.xsky130_fd_pr__res_xhigh_po_0p69.ra = 9.233825e-01
xr8.xsky130_fd_pr__res_xhigh_po_0p69.ra = 1.205095e+00
xr9.xsky130_fd_pr__res_xhigh_po_0p69.ra = 1.343970e-02
Doing analysis at TEMP = 0.000000 and TNOM = 27.000000


No. of Data Rows : 91
Note: Starting true gmin stepping
Trying gmin =   1.0000E-03 Note: One successful gmin step
Trying gmin =   1.0000E-04 Note: One successful gmin step
Trying gmin =   1.0000E-05 Note: One successful gmin step
Trying gmin =   1.0000E-06 Note: One successful gmin step
Trying gmin =   1.0000E-07 Note: One successful gmin step
Trying gmin =   1.0000E-08 Note: One successful gmin step
Trying gmin =   1.0000E-09 Note: One successful gmin step
Trying gmin =   1.0000E-10 Note: One successful gmin step
Trying gmin =   1.0000E-11 Note: One successful gmin step
Trying gmin =   1.0000E-12 Note: One successful gmin step
Trying gmin =   1.0000E-12 Note: One successful gmin step
Note: True gmin stepping completed
 Reference value :  8.00000e+00Note: Starting true gmin stepping
Trying gmin =   1.0000E-03 Note: One successful gmin step
Trying gmin =   1.0000E-04 Note: One successful gmin step
Trying gmin =   1.0000E-05 Note: One successful gmin step
Trying gmin =   1.0000E-06 Warning: Further gmin increment
Trying gmin =   5.6234E-06 Note: One successful gmin step
Trying gmin =   2.3714E-06 Note: One successful gmin step
Trying gmin =   6.4938E-07 Warning: Further gmin increment
Trying gmin =   1.7154E-06 Note: One successful gmin step
Trying gmin =   1.0554E-06 Note: One successful gmin step
Trying gmin =   5.0937E-07 Note: One successful gmin step
Trying gmin =   1.7077E-07 Warning: Further gmin increment
Trying gmin =   3.8760E-07 Note: One successful gmin step
Trying gmin =   2.5728E-07 Note: One successful gmin step
Trying gmin =   1.3913E-07 Note: One successful gmin step
Trying gmin =   5.5333E-08 Warning: Further gmin increment
Trying gmin =   1.1049E-07 Warning: Further gmin increment
Trying gmin =   1.3134E-07 Note: One successful gmin step
Trying gmin =   1.2047E-07 Note: One successful gmin step
Trying gmin =   1.0582E-07 Warning: Further gmin increment
Trying gmin =   1.1662E-07 Note: One successful gmin step
Trying gmin =   1.1109E-07 Warning: Further gmin increment
Trying gmin =   1.1521E-07 Note: One successful gmin step
Trying gmin =   1.1313E-07 Warning: Further gmin increment
Trying gmin =   1.1469E-07 Warning: Further gmin increment
Trying gmin =   1.1508E-07 Note: One successful gmin step
Trying gmin =   1.1489E-07 Note: One successful gmin step
Trying gmin =   1.1459E-07 Warning: Further gmin increment
Trying gmin =   1.1481E-07 Note: One successful gmin step
Trying gmin =   1.1470E-07 Warning: Further gmin increment
Trying gmin =   1.1478E-07 Warning: Further gmin increment
Trying gmin =   1.1481E-07 Note: One successful gmin step
Trying gmin =   1.1480E-07 Warning: Further gmin increment
Trying gmin =   1.1480E-07 Note: One successful gmin step
Trying gmin =   1.1480E-07 Warning: Last gmin step failed
Note: True gmin stepping completed
 Reference value :  2.80000e+00Note: Starting true gmin stepping
Trying gmin =   1.0000E-03 Note: One successful gmin step
Trying gmin =   1.0000E-04 Note: One successful gmin step
Trying gmin =   1.0000E-05 Note: One successful gmin step
Trying gmin =   1.0000E-06 Note: One successful gmin step
Trying gmin =   1.0000E-07 Note: One successful gmin step
Trying gmin =   1.0000E-08 Note: One successful gmin step
Trying gmin =   1.0000E-09 Note: One successful gmin step
Trying gmin =   1.0000E-10 Note: One successful gmin step
Trying gmin =   1.0000E-11 Warning: Further gmin increment
Trying gmin =   5.6234E-11 Note: One successful gmin step
Trying gmin =   2.3714E-11 Note: One successful gmin step
Trying gmin =   1.0000E-11 Note: One successful gmin step
Trying gmin =   2.7384E-12 Warning: Further gmin increment
Trying gmin =   7.2339E-12 Note: One successful gmin step
Trying gmin =   4.4508E-12 Note: One successful gmin step
Trying gmin =   2.1480E-12 Warning: Further gmin increment
Trying gmin =   3.7097E-12 Note: One successful gmin step
Trying gmin =   2.8228E-12 Note: One successful gmin step
Trying gmin =   1.8737E-12 Note: One successful gmin step
Trying gmin =   1.0133E-12 Note: One successful gmin step
Trying gmin =   1.0000E-12 Note: One successful gmin step
Note: True gmin stepping completed
 Reference value :  1.20000e+00Note: Starting true gmin stepping
Trying gmin =   1.0000E-03 Note: One successful gmin step
Trying gmin =   1.0000E-04 Note: One successful gmin step
Trying gmin =   1.0000E-05 Note: One successful gmin step
Trying gmin =   1.0000E-06 Note: One successful gmin step
Trying gmin =   1.0000E-07 Note: One successful gmin step
Trying gmin =   1.0000E-08 Note: One successful gmin step
Trying gmin =   1.0000E-09 Note: One successful gmin step
Trying gmin =   1.0000E-10 Note: One successful gmin step
Trying gmin =   1.0000E-11 Warning: Further gmin increment
Trying gmin =   5.6234E-11 Note: One successful gmin step
Trying gmin =   2.3714E-11 Note: One successful gmin step
Trying gmin =   6.4938E-12 Note: One successful gmin step
Trying gmin =   1.7783E-12 Note: One successful gmin step
Trying gmin =   1.0000E-12 Note: One successful gmin step
Note: True gmin stepping completed
pm                  =  4.418668e+01
Doing analysis at TEMP = 0.000000 and TNOM = 27.000000


No. of Data Rows : 91
psrr100             =  -5.791932e+01
psrr100k            =  -2.446397e+01
Doing analysis at TEMP = 0.000000 and TNOM = 27.000000


No. of Data Rows : 86
temp_coeff = 9.273600e+01
Doing analysis at TEMP = 0.000000 and TNOM = 27.000000


No. of Data Rows : 141
vldo_sup_2          =  1.792860e+00
vldo_sup_2_8        =  1.791673e+00
line_reg = 1.483750e-03
Note: No ".plot", ".print", or ".fourier" lines; no simulations run
vin                 =  1.894198e+00
dropout = 1.301980e-01
