 Reference value :  0.00000e+00
No compatibility mode selected!


Circuit: * ldo netlist 

Doing analysis at TEMP = 85.000000 and TNOM = 27.000000


No. of Data Rows : 1
bg_out = 1.197768e+00
inn = 1.140884e+00
inp = 1.140866e+00
l1#branch = 0.000000e+00
ldo_out = 1.802692e+00
m.xm1.msky130_fd_pr__nfet_g5v0d10v5#body = 2.954994e-11
m.xm1.msky130_fd_pr__nfet_g5v0d10v5#dbody = 5.560468e-11
m.xm1.msky130_fd_pr__nfet_g5v0d10v5#sbody = 3.304513e-11
m.xm2.msky130_fd_pr__pfet_g5v0d10v5#body = 2.300000e+00
m.xm2.msky130_fd_pr__pfet_g5v0d10v5#dbody = 2.300000e+00
m.xm2.msky130_fd_pr__pfet_g5v0d10v5#sbody = 2.300000e+00
m.xm3.msky130_fd_pr__pfet_g5v0d10v5#body = 2.300000e+00
m.xm3.msky130_fd_pr__pfet_g5v0d10v5#dbody = 2.300000e+00
m.xm3.msky130_fd_pr__pfet_g5v0d10v5#sbody = 2.300000e+00
m.xm4.msky130_fd_pr__pfet_g5v0d10v5#body = 2.300000e+00
m.xm4.msky130_fd_pr__pfet_g5v0d10v5#dbody = 2.300000e+00
m.xm4.msky130_fd_pr__pfet_g5v0d10v5#sbody = 2.300000e+00
m.xm5.msky130_fd_pr__pfet_g5v0d10v5#body = 2.300000e+00
m.xm5.msky130_fd_pr__pfet_g5v0d10v5#dbody = 2.300000e+00
m.xm5.msky130_fd_pr__pfet_g5v0d10v5#sbody = 2.300000e+00
m.xm6.msky130_fd_pr__nfet_g5v0d10v5#body = 1.934764e-11
m.xm6.msky130_fd_pr__nfet_g5v0d10v5#dbody = 4.836898e-11
m.xm6.msky130_fd_pr__nfet_g5v0d10v5#sbody = 9.673936e-12
m.xm7.msky130_fd_pr__pfet_g5v0d10v5#body = 2.300000e+00
m.xm7.msky130_fd_pr__pfet_g5v0d10v5#dbody = 2.300000e+00
m.xm7.msky130_fd_pr__pfet_g5v0d10v5#sbody = 2.300000e+00
m.xm8.msky130_fd_pr__pfet_g5v0d10v5#body = 2.300000e+00
m.xm8.msky130_fd_pr__pfet_g5v0d10v5#dbody = 2.300000e+00
m.xm8.msky130_fd_pr__pfet_g5v0d10v5#sbody = 2.300000e+00
m.xm9.msky130_fd_pr__nfet_g5v0d10v5#body = 2.777835e-11
m.xm9.msky130_fd_pr__nfet_g5v0d10v5#dbody = 5.380067e-11
m.xm9.msky130_fd_pr__nfet_g5v0d10v5#sbody = 2.953439e-11
m.xm10.msky130_fd_pr__nfet_g5v0d10v5#body = 2.753939e-11
m.xm10.msky130_fd_pr__nfet_g5v0d10v5#dbody = 5.320327e-11
m.xm10.msky130_fd_pr__nfet_g5v0d10v5#sbody = 2.941491e-11
m.xm11.msky130_fd_pr__pfet_g5v0d10v5#body = 2.300000e+00
m.xm11.msky130_fd_pr__pfet_g5v0d10v5#dbody = 2.300000e+00
m.xm11.msky130_fd_pr__pfet_g5v0d10v5#sbody = 2.300000e+00
m.xm12.msky130_fd_pr__pfet_g5v0d10v5#body = 2.300000e+00
m.xm12.msky130_fd_pr__pfet_g5v0d10v5#dbody = 2.300000e+00
m.xm12.msky130_fd_pr__pfet_g5v0d10v5#sbody = 2.300000e+00
m.xm13.msky130_fd_pr__nfet_g5v0d10v5#body = 6.174924e-12
m.xm13.msky130_fd_pr__nfet_g5v0d10v5#dbody = 1.543724e-11
m.xm13.msky130_fd_pr__nfet_g5v0d10v5#sbody = 3.087533e-12
m.xm14.msky130_fd_pr__pfet_g5v0d10v5#body = 2.300000e+00
m.xm14.msky130_fd_pr__pfet_g5v0d10v5#dbody = 2.300000e+00
m.xm14.msky130_fd_pr__pfet_g5v0d10v5#sbody = 2.300000e+00
m.xm15.msky130_fd_pr__nfet_g5v0d10v5#body = 1.638237e-14
m.xm15.msky130_fd_pr__nfet_g5v0d10v5#dbody = 4.095462e-14
m.xm15.msky130_fd_pr__nfet_g5v0d10v5#sbody = 8.192481e-15
m.xm16.msky130_fd_pr__nfet_g5v0d10v5#body = 5.351366e-11
m.xm16.msky130_fd_pr__nfet_g5v0d10v5#dbody = 9.475944e-11
m.xm16.msky130_fd_pr__nfet_g5v0d10v5#sbody = 6.578154e-11
m.xm17.msky130_fd_pr__pfet_g5v0d10v5#body = 2.300000e+00
m.xm17.msky130_fd_pr__pfet_g5v0d10v5#dbody = 2.300000e+00
m.xm17.msky130_fd_pr__pfet_g5v0d10v5#sbody = 2.300000e+00
m.xm18.msky130_fd_pr__nfet_g5v0d10v5#body = 2.376350e-11
m.xm18.msky130_fd_pr__nfet_g5v0d10v5#dbody = 5.872499e-11
m.xm18.msky130_fd_pr__nfet_g5v0d10v5#sbody = 1.188183e-11
m.xm19.msky130_fd_pr__nfet_g5v0d10v5#body = 2.957515e-11
m.xm19.msky130_fd_pr__nfet_g5v0d10v5#dbody = 5.566772e-11
m.xm19.msky130_fd_pr__nfet_g5v0d10v5#sbody = 3.305774e-11
m.xm20.msky130_fd_pr__nfet_g5v0d10v5#body = 1.275714e-11
m.xm20.msky130_fd_pr__nfet_g5v0d10v5#dbody = 3.189278e-11
m.xm20.msky130_fd_pr__nfet_g5v0d10v5#sbody = 6.378649e-12
m.xm22.msky130_fd_pr__nfet_g5v0d10v5#body = 1.243039e-11
m.xm22.msky130_fd_pr__nfet_g5v0d10v5#dbody = 3.107587e-11
m.xm22.msky130_fd_pr__nfet_g5v0d10v5#sbody = 6.215311e-12
m.xm24.msky130_fd_pr__pfet_g5v0d10v5#body = 2.300000e+00
m.xm24.msky130_fd_pr__pfet_g5v0d10v5#dbody = 2.300000e+00
m.xm24.msky130_fd_pr__pfet_g5v0d10v5#sbody = 2.300000e+00
m.xm26.msky130_fd_pr__pfet_g5v0d10v5#body = 2.300000e+00
m.xm26.msky130_fd_pr__pfet_g5v0d10v5#dbody = 2.300000e+00
m.xm26.msky130_fd_pr__pfet_g5v0d10v5#sbody = 2.300000e+00
mir = 1.213084e+00
net1 = 6.241022e-01
net2 = 3.167955e-05
net3 = 6.981463e-01
net4 = 3.107388e-01
net5 = 1.215101e+00
net6 = 8.640585e-01
net7 = 6.981280e-01
net8 = 1.289061e+00
net9 = 1.308177e+00
net10 = 3.375372e-01
net11 = 1.717270e+00
net12 = 1.717270e+00
net13 = 0.000000e+00
out = 1.717270e+00
pos = 1.197990e+00
q.xq2.qsky130_fd_pr__pnp_05v5_w0p68l0p68#collcx = 3.167362e-03
q.xq3.qsky130_fd_pr__pnp_05v5_w0p68l0p68#collcx = 3.986413e-04
q.xq4.qsky130_fd_pr__pnp_05v5_w0p68l0p68#collcx = 3.986413e-04
q.xq8.qsky130_fd_pr__pnp_05v5_w0p68l0p68#collcx = 3.986413e-04
q.xq10.qsky130_fd_pr__pnp_05v5_w0p68l0p68#collcx = 3.986413e-04
q.xq12.qsky130_fd_pr__pnp_05v5_w0p68l0p68#collcx = 3.986413e-04
q.xq14.qsky130_fd_pr__pnp_05v5_w0p68l0p68#collcx = 3.986413e-04
q.xq16.qsky130_fd_pr__pnp_05v5_w0p68l0p68#collcx = 3.986413e-04
q.xq18.qsky130_fd_pr__pnp_05v5_w0p68l0p68#collcx = 3.986413e-04
vb = 8.641083e-01
vdd = 2.300000e+00
vs#branch = -1.95015e-04
vt#branch = 0.000000e+00
xc1.a = 0.000000e+00
xc1.b1 = 0.000000e+00
xc3.a = 1.717270e+00
xc3.b1 = 1.717270e+00
xr1.xsky130_fd_pr__res_xhigh_po_0p69.ra = 7.012886e-01
xr2.xsky130_fd_pr__res_xhigh_po_0p69.ra = 7.013069e-01
xr3.xsky130_fd_pr__res_xhigh_po_0p69.ra = 1.873351e-03
xr4.xsky130_fd_pr__res_xhigh_po_0p69.ra = 6.254059e-01
xr5.xsky130_fd_pr__res_xhigh_po_0p69.ra = 1.873299e-03
xr6.xsky130_fd_pr__res_xhigh_po_0p69.ra = 3.346652e-03
xr7.xsky130_fd_pr__res_xhigh_po_0p69.ra = 1.717270e+00
xr8.xsky130_fd_pr__res_xhigh_po_0p69.ra = 1.203552e+00
xr9.xsky130_fd_pr__res_xhigh_po_0p69.ra = 5.833058e-03
Doing analysis at TEMP = 85.000000 and TNOM = 27.000000


No. of Data Rows : 91
Note: Starting true gmin stepping
Trying gmin =   1.0000E-03 Note: One successful gmin step
Trying gmin =   1.0000E-04 Note: One successful gmin step
Trying gmin =   1.0000E-05 Note: One successful gmin step
Trying gmin =   1.0000E-06 Note: One successful gmin step
Trying gmin =   1.0000E-07 Note: One successful gmin step
Trying gmin =   1.0000E-08 Warning: Further gmin increment
Trying gmin =   5.6234E-08 Warning: Further gmin increment
Trying gmin =   8.6596E-08 Note: One successful gmin step
Trying gmin =   6.9783E-08 Note: One successful gmin step
Trying gmin =   5.0481E-08 Warning: Further gmin increment
Trying gmin =   6.4357E-08 Note: One successful gmin step
Trying gmin =   5.6998E-08 Warning: Further gmin increment
Trying gmin =   6.2432E-08 Note: One successful gmin step
Trying gmin =   5.9653E-08 Warning: Further gmin increment
Trying gmin =   6.1726E-08 Note: One successful gmin step
Trying gmin =   6.0681E-08 Warning: Further gmin increment
Trying gmin =   6.1463E-08 Note: One successful gmin step
Trying gmin =   6.1070E-08 Note: One successful gmin step
Trying gmin =   6.0487E-08 Warning: Further gmin increment
Trying gmin =   6.0924E-08 Note: One successful gmin step
Trying gmin =   6.0705E-08 Warning: Further gmin increment
Trying gmin =   6.0869E-08 Note: One successful gmin step
Trying gmin =   6.0787E-08 Note: One successful gmin step
Trying gmin =   6.0664E-08 Warning: Further gmin increment
Trying gmin =   6.0756E-08 Warning: Further gmin increment
Trying gmin =   6.0779E-08 Note: One successful gmin step
Trying gmin =   6.0768E-08 Note: One successful gmin step
Trying gmin =   6.0750E-08 Warning: Further gmin increment
Trying gmin =   6.0763E-08 Note: One successful gmin step
Trying gmin =   6.0757E-08 Warning: Further gmin increment
Trying gmin =   6.0762E-08 Note: One successful gmin step
Trying gmin =   6.0759E-08 Note: One successful gmin step
Trying gmin =   6.0756E-08 Warning: Further gmin increment
Trying gmin =   6.0758E-08 Note: One successful gmin step
Trying gmin =   6.0757E-08 Warning: Last gmin step failed
Warning: True gmin stepping failed
Note: Starting dynamic gmin stepping
Trying gmin =   1.0000E-03 Note: One successful gmin step
Trying gmin =   1.0000E-04 Note: One successful gmin step
Trying gmin =   1.0000E-05 Warning: Further gmin increment
Trying gmin =   5.6234E-05 Note: One successful gmin step
Trying gmin =   2.3714E-05 Note: One successful gmin step
Trying gmin =   6.4938E-06 Warning: Further gmin increment
Trying gmin =   1.7154E-05 Note: One successful gmin step
Trying gmin =   1.0554E-05 Warning: Further gmin increment
Trying gmin =   1.5193E-05 Note: One successful gmin step
Trying gmin =   1.2663E-05 Note: One successful gmin step
Trying gmin =   9.6358E-06 Note: One successful gmin step
Trying gmin =   6.3960E-06 Note: One successful gmin step
Trying gmin =   3.4589E-06 Note: One successful gmin step
Trying gmin =   1.8706E-06 Warning: Further gmin increment
Trying gmin =   2.9662E-06 Warning: Further gmin increment
Trying gmin =   3.3285E-06 Note: One successful gmin step
Trying gmin =   3.1421E-06 Note: One successful gmin step
Trying gmin =   2.8819E-06 Warning: Further gmin increment
Trying gmin =   3.0750E-06 Note: One successful gmin step
Trying gmin =   2.9769E-06 Warning: Further gmin increment
Trying gmin =   3.0502E-06 Note: One successful gmin step
Trying gmin =   3.0133E-06 Note: One successful gmin step
Trying gmin =   2.9589E-06 Note: One successful gmin step
Trying gmin =   2.8790E-06 Note: One successful gmin step
Trying gmin =   2.7633E-06 Note: One successful gmin step
Trying gmin =   2.5984E-06 Note: One successful gmin step
Trying gmin =   2.3692E-06 Note: One successful gmin step
Trying gmin =   2.0629E-06 Note: One successful gmin step
Trying gmin =   1.6760E-06 Note: One successful gmin step
Trying gmin =   1.2273E-06 Note: One successful gmin step
Trying gmin =   7.6914E-07 Note: One successful gmin step
Trying gmin =   3.8157E-07 Note: One successful gmin step
Trying gmin =   1.3333E-07 Note: One successful gmin step
Trying gmin =   2.7538E-08 Note: One successful gmin step
Trying gmin =   2.7538E-09 Note: One successful gmin step
Trying gmin =   2.7538E-10 Note: One successful gmin step
Trying gmin =   2.7538E-11 Note: One successful gmin step
Trying gmin =   2.7538E-12 Note: One successful gmin step
Trying gmin =   1.0000E-12 Note: One successful gmin step
Note: Dynamic gmin stepping completed
 Reference value :  2.80000e+00Note: Starting true gmin stepping
Trying gmin =   1.0000E-03 Note: One successful gmin step
Trying gmin =   1.0000E-04 Note: One successful gmin step
Trying gmin =   1.0000E-05 Note: One successful gmin step
Trying gmin =   1.0000E-06 Note: One successful gmin step
Trying gmin =   1.0000E-07 Note: One successful gmin step
Trying gmin =   1.0000E-08 Warning: Further gmin increment
Trying gmin =   5.6234E-08 Note: One successful gmin step
Trying gmin =   2.3714E-08 Note: One successful gmin step
Trying gmin =   6.4938E-09 Note: One successful gmin step
Trying gmin =   1.7783E-09 Note: One successful gmin step
Trying gmin =   2.5483E-10 Note: One successful gmin step
Trying gmin =   2.5483E-11 Note: One successful gmin step
Trying gmin =   2.5483E-12 Note: One successful gmin step
Trying gmin =   1.0000E-12 Note: One successful gmin step
Note: True gmin stepping completed
Note: Starting true gmin stepping
Trying gmin =   1.0000E-03 Note: One successful gmin step
Trying gmin =   1.0000E-04 Note: One successful gmin step
Trying gmin =   1.0000E-05 Note: One successful gmin step
Trying gmin =   1.0000E-06 Note: One successful gmin step
Trying gmin =   1.0000E-07 Note: One successful gmin step
Trying gmin =   1.0000E-08 Warning: Further gmin increment
Trying gmin =   5.6234E-08 Note: One successful gmin step
Trying gmin =   2.3714E-08 Note: One successful gmin step
Trying gmin =   6.4938E-09 Warning: Further gmin increment
Trying gmin =   1.7154E-08 Note: One successful gmin step
Trying gmin =   1.0554E-08 Note: One successful gmin step
Trying gmin =   5.0937E-09 Note: One successful gmin step
Trying gmin =   1.7077E-09 Note: One successful gmin step
Trying gmin =   3.3152E-10 Note: One successful gmin step
Trying gmin =   3.3152E-11 Note: One successful gmin step
Trying gmin =   3.3152E-12 Note: One successful gmin step
Trying gmin =   1.0000E-12 Note: One successful gmin step
Note: True gmin stepping completed
 Reference value :  1.18000e+00pm                  =  6.060515e+01
Doing analysis at TEMP = 85.000000 and TNOM = 27.000000


No. of Data Rows : 91
psrr100             =  -5.130018e+01
psrr100k            =  -2.511480e+01
Doing analysis at TEMP = 85.000000 and TNOM = 27.000000


No. of Data Rows : 86
temp_coeff = 1.456365e+02
Doing analysis at TEMP = 85.000000 and TNOM = 27.000000


No. of Data Rows : 141
vldo_sup_2          =  1.801553e+00
vldo_sup_2_8        =  1.803648e+00
line_reg = 2.618750e-03
Note: No ".plot", ".print", or ".fourier" lines; no simulations run
vin                 =  1.764121e+00
dropout = 1.210000e-04
