 Reference value :  0.00000e+00
No compatibility mode selected!


Circuit: * ldo netlist 

Doing analysis at TEMP = 85.000000 and TNOM = 27.000000


No. of Data Rows : 1
bg_out = 1.090580e+00
inn = 1.049507e+00
inp = 1.049453e+00
l1#branch = 0.000000e+00
ldo_out = 1.792297e+00
m.xm1.msky130_fd_pr__nfet_g5v0d10v5#body = 2.633347e-11
m.xm1.msky130_fd_pr__nfet_g5v0d10v5#dbody = 4.919733e-11
m.xm1.msky130_fd_pr__nfet_g5v0d10v5#sbody = 2.980308e-11
m.xm2.msky130_fd_pr__pfet_g5v0d10v5#body = 2.100000e+00
m.xm2.msky130_fd_pr__pfet_g5v0d10v5#dbody = 2.100000e+00
m.xm2.msky130_fd_pr__pfet_g5v0d10v5#sbody = 2.100000e+00
m.xm3.msky130_fd_pr__pfet_g5v0d10v5#body = 2.100000e+00
m.xm3.msky130_fd_pr__pfet_g5v0d10v5#dbody = 2.100000e+00
m.xm3.msky130_fd_pr__pfet_g5v0d10v5#sbody = 2.100000e+00
m.xm4.msky130_fd_pr__pfet_g5v0d10v5#body = 2.100000e+00
m.xm4.msky130_fd_pr__pfet_g5v0d10v5#dbody = 2.100000e+00
m.xm4.msky130_fd_pr__pfet_g5v0d10v5#sbody = 2.100000e+00
m.xm5.msky130_fd_pr__pfet_g5v0d10v5#body = 2.100000e+00
m.xm5.msky130_fd_pr__pfet_g5v0d10v5#dbody = 2.100000e+00
m.xm5.msky130_fd_pr__pfet_g5v0d10v5#sbody = 2.100000e+00
m.xm6.msky130_fd_pr__nfet_g5v0d10v5#body = 1.926194e-11
m.xm6.msky130_fd_pr__nfet_g5v0d10v5#dbody = 4.815474e-11
m.xm6.msky130_fd_pr__nfet_g5v0d10v5#sbody = 9.631079e-12
m.xm7.msky130_fd_pr__pfet_g5v0d10v5#body = 2.100000e+00
m.xm7.msky130_fd_pr__pfet_g5v0d10v5#dbody = 2.100000e+00
m.xm7.msky130_fd_pr__pfet_g5v0d10v5#sbody = 2.100000e+00
m.xm8.msky130_fd_pr__pfet_g5v0d10v5#body = 2.100000e+00
m.xm8.msky130_fd_pr__pfet_g5v0d10v5#dbody = 2.100000e+00
m.xm8.msky130_fd_pr__pfet_g5v0d10v5#sbody = 2.100000e+00
m.xm9.msky130_fd_pr__nfet_g5v0d10v5#body = 2.444024e-11
m.xm9.msky130_fd_pr__nfet_g5v0d10v5#dbody = 4.736872e-11
m.xm9.msky130_fd_pr__nfet_g5v0d10v5#sbody = 2.595202e-11
m.xm10.msky130_fd_pr__nfet_g5v0d10v5#body = 2.436364e-11
m.xm10.msky130_fd_pr__nfet_g5v0d10v5#dbody = 4.717720e-11
m.xm10.msky130_fd_pr__nfet_g5v0d10v5#sbody = 2.591371e-11
m.xm11.msky130_fd_pr__pfet_g5v0d10v5#body = 2.100000e+00
m.xm11.msky130_fd_pr__pfet_g5v0d10v5#dbody = 2.100000e+00
m.xm11.msky130_fd_pr__pfet_g5v0d10v5#sbody = 2.100000e+00
m.xm12.msky130_fd_pr__pfet_g5v0d10v5#body = 2.100000e+00
m.xm12.msky130_fd_pr__pfet_g5v0d10v5#dbody = 2.100000e+00
m.xm12.msky130_fd_pr__pfet_g5v0d10v5#sbody = 2.100000e+00
m.xm13.msky130_fd_pr__nfet_g5v0d10v5#body = 5.218839e-12
m.xm13.msky130_fd_pr__nfet_g5v0d10v5#dbody = 1.304703e-11
m.xm13.msky130_fd_pr__nfet_g5v0d10v5#sbody = 2.609484e-12
m.xm14.msky130_fd_pr__pfet_g5v0d10v5#body = 2.100000e+00
m.xm14.msky130_fd_pr__pfet_g5v0d10v5#dbody = 2.100000e+00
m.xm14.msky130_fd_pr__pfet_g5v0d10v5#sbody = 2.100000e+00
m.xm15.msky130_fd_pr__nfet_g5v0d10v5#body = 1.139992e-14
m.xm15.msky130_fd_pr__nfet_g5v0d10v5#dbody = 2.849907e-14
m.xm15.msky130_fd_pr__nfet_g5v0d10v5#sbody = 5.700681e-15
m.xm16.msky130_fd_pr__nfet_g5v0d10v5#body = 4.987145e-11
m.xm16.msky130_fd_pr__nfet_g5v0d10v5#dbody = 8.793833e-11
m.xm16.msky130_fd_pr__nfet_g5v0d10v5#sbody = 6.167601e-11
m.xm17.msky130_fd_pr__pfet_g5v0d10v5#body = 2.100000e+00
m.xm17.msky130_fd_pr__pfet_g5v0d10v5#dbody = 2.100000e+00
m.xm17.msky130_fd_pr__pfet_g5v0d10v5#sbody = 2.100000e+00
m.xm18.msky130_fd_pr__nfet_g5v0d10v5#body = 1.005379e-11
m.xm18.msky130_fd_pr__nfet_g5v0d10v5#dbody = 2.513440e-11
m.xm18.msky130_fd_pr__nfet_g5v0d10v5#sbody = 5.026966e-12
m.xm19.msky130_fd_pr__nfet_g5v0d10v5#body = 2.640296e-11
m.xm19.msky130_fd_pr__nfet_g5v0d10v5#dbody = 4.937107e-11
m.xm19.msky130_fd_pr__nfet_g5v0d10v5#sbody = 2.983782e-11
m.xm20.msky130_fd_pr__nfet_g5v0d10v5#body = 1.267020e-11
m.xm20.msky130_fd_pr__nfet_g5v0d10v5#dbody = 3.167542e-11
m.xm20.msky130_fd_pr__nfet_g5v0d10v5#sbody = 6.335171e-12
m.xm22.msky130_fd_pr__nfet_g5v0d10v5#body = 1.161173e-11
m.xm22.msky130_fd_pr__nfet_g5v0d10v5#dbody = 2.902921e-11
m.xm22.msky130_fd_pr__nfet_g5v0d10v5#sbody = 5.805968e-12
m.xm24.msky130_fd_pr__pfet_g5v0d10v5#body = 2.100000e+00
m.xm24.msky130_fd_pr__pfet_g5v0d10v5#dbody = 2.100000e+00
m.xm24.msky130_fd_pr__pfet_g5v0d10v5#sbody = 2.100000e+00
m.xm26.msky130_fd_pr__pfet_g5v0d10v5#body = 2.100000e+00
m.xm26.msky130_fd_pr__pfet_g5v0d10v5#dbody = 2.100000e+00
m.xm26.msky130_fd_pr__pfet_g5v0d10v5#sbody = 2.100000e+00
mir = 1.021120e+00
net1 = 6.211106e-01
net2 = 2.204158e-05
net3 = 6.945541e-01
net4 = 2.456094e-01
net5 = 1.026679e+00
net6 = 8.572029e-01
net7 = 6.944993e-01
net8 = 1.111533e+00
net9 = 1.117662e+00
net10 = 2.611053e-01
net11 = 6.478403e-01
net12 = 6.478403e-01
net13 = 0.000000e+00
out = 6.478403e-01
pos = 1.090656e+00
q.xq2.qsky130_fd_pr__pnp_05v5_w0p68l0p68#collcx = 2.895156e-03
q.xq3.qsky130_fd_pr__pnp_05v5_w0p68l0p68#collcx = 3.641778e-04
q.xq4.qsky130_fd_pr__pnp_05v5_w0p68l0p68#collcx = 3.641778e-04
q.xq8.qsky130_fd_pr__pnp_05v5_w0p68l0p68#collcx = 3.641778e-04
q.xq10.qsky130_fd_pr__pnp_05v5_w0p68l0p68#collcx = 3.641778e-04
q.xq12.qsky130_fd_pr__pnp_05v5_w0p68l0p68#collcx = 3.641778e-04
q.xq14.qsky130_fd_pr__pnp_05v5_w0p68l0p68#collcx = 3.641778e-04
q.xq16.qsky130_fd_pr__pnp_05v5_w0p68l0p68#collcx = 3.641778e-04
q.xq18.qsky130_fd_pr__pnp_05v5_w0p68l0p68#collcx = 3.641778e-04
vb = 8.571528e-01
vdd = 2.100000e+00
vs#branch = -9.97034e-02
vt#branch = 0.000000e+00
xc1.a = 0.000000e+00
xc1.b1 = 0.000000e+00
xc3.a = 6.478403e-01
xc3.b1 = 6.478403e-01
xr1.xsky130_fd_pr__res_xhigh_po_0p69.ra = 7.028781e-01
xr2.xsky130_fd_pr__res_xhigh_po_0p69.ra = 7.029329e-01
xr3.xsky130_fd_pr__res_xhigh_po_0p69.ra = 5.097519e-03
xr4.xsky130_fd_pr__res_xhigh_po_0p69.ra = 6.244852e-01
xr5.xsky130_fd_pr__res_xhigh_po_0p69.ra = 5.097093e-03
xr6.xsky130_fd_pr__res_xhigh_po_0p69.ra = 8.855022e-03
xr7.xsky130_fd_pr__res_xhigh_po_0p69.ra = 6.478403e-01
xr8.xsky130_fd_pr__res_xhigh_po_0p69.ra = 1.104112e+00
xr9.xsky130_fd_pr__res_xhigh_po_0p69.ra = 1.388914e-02
Doing analysis at TEMP = 85.000000 and TNOM = 27.000000


No. of Data Rows : 91
Error: no such vector PM
Note: Starting true gmin stepping
Trying gmin =   1.0000E-03 Note: One successful gmin step
Trying gmin =   1.0000E-04 Note: One successful gmin step
Trying gmin =   1.0000E-05 Note: One successful gmin step
Trying gmin =   1.0000E-06 Note: One successful gmin step
Trying gmin =   1.0000E-07 Note: One successful gmin step
Trying gmin =   1.0000E-08 Note: One successful gmin step
Trying gmin =   3.1623E-09 Note: One successful gmin step
Trying gmin =   5.6234E-10 Note: One successful gmin step
Trying gmin =   5.6234E-11 Note: One successful gmin step
Trying gmin =   5.6234E-12 Note: One successful gmin step
Trying gmin =   1.0000E-12 Note: One successful gmin step
Note: True gmin stepping completed
 Reference value :  1.08000e+00
Error: measure  pm  (AT) : out of interval
 meas ac pm find p when vdb(ldo_out)=0 failed!

Doing analysis at TEMP = 85.000000 and TNOM = 27.000000


No. of Data Rows : 91
psrr100             =  -4.847384e+01
psrr100k            =  -1.932055e+01
Doing analysis at TEMP = 85.000000 and TNOM = 27.000000


No. of Data Rows : 86
temp_coeff = 5.633602e+01
Doing analysis at TEMP = 85.000000 and TNOM = 27.000000


No. of Data Rows : 141
vldo_sup_2          =  1.791801e+00
vldo_sup_2_8        =  1.793692e+00
line_reg = 2.363750e-03
Note: No ".plot", ".print", or ".fourier" lines; no simulations run
vin                 =  1.920247e+00
dropout = 1.562470e-01
