 Reference value :  0.00000e+00
No compatibility mode selected!


Circuit: * ldo netlist 

Doing analysis at TEMP = 0.000000 and TNOM = 27.000000


No. of Data Rows : 1
bg_out = 6.041851e-01
inn = 8.171428e-01
inp = 8.168590e-01
l1#branch = 0.000000e+00
ldo_out = 9.115875e-01
m.xm1.msky130_fd_pr__nfet_g5v0d10v5#body = 1.364133e-11
m.xm1.msky130_fd_pr__nfet_g5v0d10v5#dbody = 3.271764e-11
m.xm1.msky130_fd_pr__nfet_g5v0d10v5#sbody = 8.206347e-12
m.xm2.msky130_fd_pr__pfet_g5v0d10v5#body = 2.300000e+00
m.xm2.msky130_fd_pr__pfet_g5v0d10v5#dbody = 2.300000e+00
m.xm2.msky130_fd_pr__pfet_g5v0d10v5#sbody = 2.300000e+00
m.xm3.msky130_fd_pr__pfet_g5v0d10v5#body = 2.300000e+00
m.xm3.msky130_fd_pr__pfet_g5v0d10v5#dbody = 2.300000e+00
m.xm3.msky130_fd_pr__pfet_g5v0d10v5#sbody = 2.300000e+00
m.xm4.msky130_fd_pr__pfet_g5v0d10v5#body = 2.300000e+00
m.xm4.msky130_fd_pr__pfet_g5v0d10v5#dbody = 2.300000e+00
m.xm4.msky130_fd_pr__pfet_g5v0d10v5#sbody = 2.300000e+00
m.xm5.msky130_fd_pr__pfet_g5v0d10v5#body = 2.300000e+00
m.xm5.msky130_fd_pr__pfet_g5v0d10v5#dbody = 2.300000e+00
m.xm5.msky130_fd_pr__pfet_g5v0d10v5#sbody = 2.300000e+00
m.xm6.msky130_fd_pr__nfet_g5v0d10v5#body = 1.070943e-11
m.xm6.msky130_fd_pr__nfet_g5v0d10v5#dbody = 2.677357e-11
m.xm6.msky130_fd_pr__nfet_g5v0d10v5#sbody = 5.354717e-12
m.xm7.msky130_fd_pr__pfet_g5v0d10v5#body = 2.300000e+00
m.xm7.msky130_fd_pr__pfet_g5v0d10v5#dbody = 2.300000e+00
m.xm7.msky130_fd_pr__pfet_g5v0d10v5#sbody = 2.300000e+00
m.xm8.msky130_fd_pr__pfet_g5v0d10v5#body = 2.300000e+00
m.xm8.msky130_fd_pr__pfet_g5v0d10v5#dbody = 2.300000e+00
m.xm8.msky130_fd_pr__pfet_g5v0d10v5#sbody = 2.300000e+00
m.xm9.msky130_fd_pr__nfet_g5v0d10v5#body = 1.596757e-11
m.xm9.msky130_fd_pr__nfet_g5v0d10v5#dbody = 3.986103e-11
m.xm9.msky130_fd_pr__nfet_g5v0d10v5#sbody = 8.041676e-12
m.xm10.msky130_fd_pr__nfet_g5v0d10v5#body = 1.359052e-11
m.xm10.msky130_fd_pr__nfet_g5v0d10v5#dbody = 3.391841e-11
m.xm10.msky130_fd_pr__nfet_g5v0d10v5#sbody = 6.853150e-12
m.xm11.msky130_fd_pr__pfet_g5v0d10v5#body = 2.300000e+00
m.xm11.msky130_fd_pr__pfet_g5v0d10v5#dbody = 2.300000e+00
m.xm11.msky130_fd_pr__pfet_g5v0d10v5#sbody = 2.300000e+00
m.xm12.msky130_fd_pr__pfet_g5v0d10v5#body = 2.300000e+00
m.xm12.msky130_fd_pr__pfet_g5v0d10v5#dbody = 2.300000e+00
m.xm12.msky130_fd_pr__pfet_g5v0d10v5#sbody = 2.300000e+00
m.xm13.msky130_fd_pr__nfet_g5v0d10v5#body = 2.894296e-14
m.xm13.msky130_fd_pr__nfet_g5v0d10v5#dbody = 7.235724e-14
m.xm13.msky130_fd_pr__nfet_g5v0d10v5#sbody = 1.447165e-14
m.xm14.msky130_fd_pr__pfet_g5v0d10v5#body = 2.300000e+00
m.xm14.msky130_fd_pr__pfet_g5v0d10v5#dbody = 2.300000e+00
m.xm14.msky130_fd_pr__pfet_g5v0d10v5#sbody = 2.300000e+00
m.xm15.msky130_fd_pr__nfet_g5v0d10v5#body = 6.484931e-13
m.xm15.msky130_fd_pr__nfet_g5v0d10v5#dbody = 1.621233e-12
m.xm15.msky130_fd_pr__nfet_g5v0d10v5#sbody = 3.242466e-13
m.xm16.msky130_fd_pr__nfet_g5v0d10v5#body = 3.896440e-11
m.xm16.msky130_fd_pr__nfet_g5v0d10v5#dbody = 7.698232e-11
m.xm16.msky130_fd_pr__nfet_g5v0d10v5#sbody = 3.991089e-11
m.xm17.msky130_fd_pr__pfet_g5v0d10v5#body = 2.300000e+00
m.xm17.msky130_fd_pr__pfet_g5v0d10v5#dbody = 2.300000e+00
m.xm17.msky130_fd_pr__pfet_g5v0d10v5#sbody = 2.300000e+00
m.xm18.msky130_fd_pr__nfet_g5v0d10v5#body = 1.733279e-11
m.xm18.msky130_fd_pr__nfet_g5v0d10v5#dbody = 4.332992e-11
m.xm18.msky130_fd_pr__nfet_g5v0d10v5#sbody = 8.666401e-12
m.xm19.msky130_fd_pr__nfet_g5v0d10v5#body = 1.410342e-11
m.xm19.msky130_fd_pr__nfet_g5v0d10v5#dbody = 3.387287e-11
m.xm19.msky130_fd_pr__nfet_g5v0d10v5#sbody = 8.437393e-12
m.xm20.msky130_fd_pr__nfet_g5v0d10v5#body = 1.065884e-11
m.xm20.msky130_fd_pr__nfet_g5v0d10v5#dbody = 2.664710e-11
m.xm20.msky130_fd_pr__nfet_g5v0d10v5#sbody = 5.329427e-12
m.xm22.msky130_fd_pr__nfet_g5v0d10v5#body = 6.928734e-13
m.xm22.msky130_fd_pr__nfet_g5v0d10v5#dbody = 1.732182e-12
m.xm22.msky130_fd_pr__nfet_g5v0d10v5#sbody = 3.464381e-13
m.xm24.msky130_fd_pr__pfet_g5v0d10v5#body = 2.300000e+00
m.xm24.msky130_fd_pr__pfet_g5v0d10v5#dbody = 2.300000e+00
m.xm24.msky130_fd_pr__pfet_g5v0d10v5#sbody = 2.300000e+00
m.xm26.msky130_fd_pr__pfet_g5v0d10v5#body = 2.300000e+00
m.xm26.msky130_fd_pr__pfet_g5v0d10v5#dbody = 2.300000e+00
m.xm26.msky130_fd_pr__pfet_g5v0d10v5#sbody = 2.300000e+00
mir = 1.035874e+00
net1 = 5.972540e-01
net2 = 5.186636e-02
net3 = 5.975908e-01
net4 = 5.542309e-02
net5 = 1.072842e+00
net6 = 8.567467e-01
net7 = 5.973037e-01
net8 = 1.084923e+00
net9 = 1.275087e+00
net10 = 2.315285e-03
net11 = 1.386540e+00
net12 = 1.386540e+00
net13 = 0.000000e+00
out = 1.386540e+00
pos = 6.064217e-01
q.xq2.qsky130_fd_pr__pnp_05v5_w0p68l0p68#collcx = 1.995146e-07
q.xq3.qsky130_fd_pr__pnp_05v5_w0p68l0p68#collcx = 1.967728e-07
q.xq4.qsky130_fd_pr__pnp_05v5_w0p68l0p68#collcx = 1.967728e-07
q.xq8.qsky130_fd_pr__pnp_05v5_w0p68l0p68#collcx = 1.967728e-07
q.xq10.qsky130_fd_pr__pnp_05v5_w0p68l0p68#collcx = 1.967728e-07
q.xq12.qsky130_fd_pr__pnp_05v5_w0p68l0p68#collcx = 1.967728e-07
q.xq14.qsky130_fd_pr__pnp_05v5_w0p68l0p68#collcx = 1.967728e-07
q.xq16.qsky130_fd_pr__pnp_05v5_w0p68l0p68#collcx = 1.967728e-07
q.xq18.qsky130_fd_pr__pnp_05v5_w0p68l0p68#collcx = 1.967728e-07
vb = 8.527056e-01
vdd = 2.300000e+00
vs#branch = -7.75556e-05
vt#branch = 0.000000e+00
xc1.a = 0.000000e+00
xc1.b1 = 0.000000e+00
xc3.a = 1.386540e+00
xc3.b1 = 1.386540e+00
xr1.xsky130_fd_pr__res_xhigh_po_0p69.ra = 6.008969e-01
xr2.xsky130_fd_pr__res_xhigh_po_0p69.ra = 6.011839e-01
xr3.xsky130_fd_pr__res_xhigh_po_0p69.ra = 3.679192e-03
xr4.xsky130_fd_pr__res_xhigh_po_0p69.ra = 5.972561e-01
xr5.xsky130_fd_pr__res_xhigh_po_0p69.ra = 3.677340e-03
xr6.xsky130_fd_pr__res_xhigh_po_0p69.ra = 3.721743e-03
xr7.xsky130_fd_pr__res_xhigh_po_0p69.ra = 1.386540e+00
xr8.xsky130_fd_pr__res_xhigh_po_0p69.ra = 6.128098e-01
xr9.xsky130_fd_pr__res_xhigh_po_0p69.ra = 6.521106e-03
Doing analysis at TEMP = 0.000000 and TNOM = 27.000000


No. of Data Rows : 91
Error: -4.61562e+168, 2 out of range for ^
Error: -4.61562e+168, 2 out of range for ^
Note: Starting true gmin stepping
Trying gmin =   1.0000E-03 Note: One successful gmin step
Trying gmin =   1.0000E-04 Note: One successful gmin step
Trying gmin =   1.0000E-05 Note: One successful gmin step
Trying gmin =   1.0000E-06 Note: One successful gmin step
Trying gmin =   1.0000E-07 Note: One successful gmin step
Trying gmin =   1.0000E-08 Warning: Further gmin increment
Trying gmin =   5.6234E-08 Note: One successful gmin step
Trying gmin =   2.3714E-08 Note: One successful gmin step
Trying gmin =   6.4938E-09 Warning: Further gmin increment
Trying gmin =   1.7154E-08 Note: One successful gmin step
Trying gmin =   1.0554E-08 Note: One successful gmin step
Trying gmin =   5.0937E-09 Note: One successful gmin step
Trying gmin =   1.7077E-09 Note: One successful gmin step
Trying gmin =   3.3152E-10 Note: One successful gmin step
Trying gmin =   3.3152E-11 Note: One successful gmin step
Trying gmin =   3.3152E-12 Note: One successful gmin step
Trying gmin =   1.0000E-12 Note: One successful gmin step
Note: True gmin stepping completed
 Reference value :  1.42000e+00Note: Starting true gmin stepping
Trying gmin =   1.0000E-03 Note: One successful gmin step
Trying gmin =   1.0000E-04 Note: One successful gmin step
Trying gmin =   1.0000E-05 Note: One successful gmin step
Trying gmin =   1.0000E-06 Note: One successful gmin step
Trying gmin =   1.0000E-07 Note: One successful gmin step
Trying gmin =   1.0000E-08 Warning: Further gmin increment
Trying gmin =   5.6234E-08 Note: One successful gmin step
Trying gmin =   2.3714E-08 Note: One successful gmin step
Trying gmin =   6.4938E-09 Warning: Further gmin increment
Trying gmin =   1.7154E-08 Note: One successful gmin step
Trying gmin =   1.0554E-08 Note: One successful gmin step
Trying gmin =   5.0937E-09 Note: One successful gmin step
Trying gmin =   1.7077E-09 Note: One successful gmin step
Trying gmin =   3.3152E-10 Note: One successful gmin step
Trying gmin =   3.3152E-11 Note: One successful gmin step
Trying gmin =   3.3152E-12 Note: One successful gmin step
Trying gmin =   1.0000E-12 Note: One successful gmin step
Note: True gmin stepping completed
Note: Starting true gmin stepping
Trying gmin =   1.0000E-03 Note: One successful gmin step
Trying gmin =   1.0000E-04 Note: One successful gmin step
Trying gmin =   1.0000E-05 Note: One successful gmin step
Trying gmin =   1.0000E-06 Note: One successful gmin step
Trying gmin =   1.0000E-07 Note: One successful gmin step
Trying gmin =   1.0000E-08 Note: One successful gmin step
Trying gmin =   1.0000E-09 Note: One successful gmin step
Trying gmin =   1.0000E-10 Note: One successful gmin step
Trying gmin =   1.0000E-11 Note: One successful gmin step
Trying gmin =   1.0000E-12 Warning: Further gmin increment
Trying gmin =   5.6234E-12 Note: One successful gmin step
Trying gmin =   2.3714E-12 Note: One successful gmin step
Trying gmin =   1.0000E-12 Warning: Further gmin increment
Trying gmin =   1.9110E-12 Note: One successful gmin step
Trying gmin =   1.3824E-12 Note: One successful gmin step
Trying gmin =   1.0000E-12 Warning: Further gmin increment
Trying gmin =   1.2749E-12 Note: One successful gmin step
Trying gmin =   1.1291E-12 Note: One successful gmin step
Trying gmin =   1.0000E-12 Note: One successful gmin step
Warning: True gmin stepping failed
Note: Starting dynamic gmin stepping
Trying gmin =   1.0000E-03 Note: One successful gmin step
Trying gmin =   1.0000E-04 Note: One successful gmin step
Trying gmin =   1.0000E-05 Note: One successful gmin step
Trying gmin =   1.0000E-06 Note: One successful gmin step
Trying gmin =   1.0000E-07 Note: One successful gmin step
Trying gmin =   1.0000E-08 Note: One successful gmin step
Trying gmin =   1.0000E-09 Note: One successful gmin step
Trying gmin =   1.0000E-10 Note: One successful gmin step
Trying gmin =   1.0000E-11 Note: One successful gmin step
Trying gmin =   1.0000E-12 Note: One successful gmin step
Trying gmin =   1.0000E-12 Note: One successful gmin step
Note: Dynamic gmin stepping completed
 Reference value :  4.00000e-02pm                  =  7.833131e+01
Doing analysis at TEMP = 0.000000 and TNOM = 27.000000


No. of Data Rows : 91
psrr100             =  -3.383504e+01
psrr100k            =  -7.523425e-01
Doing analysis at TEMP = 0.000000 and TNOM = 27.000000


No. of Data Rows : 86
temp_coeff = 1.054135e+02
Doing analysis at TEMP = 0.000000 and TNOM = 27.000000


No. of Data Rows : 141
vldo_sup_2          =  2.130909e+00
vldo_sup_2_8        =  2.883308e+00
line_reg = 9.404988e-01
Note: No ".plot", ".print", or ".fourier" lines; no simulations run
vin                 =  1.562239e+00
dropout = -2.01761e-01
