 Reference value :  0.00000e+00
No compatibility mode selected!


Circuit: * ldo netlist 

Doing analysis at TEMP = 27.000000 and TNOM = 27.000000


No. of Data Rows : 1
bg_out = 1.190844e+00
inn = 1.219813e+00
inp = 1.219785e+00
l1#branch = 0.000000e+00
ldo_out = 1.792010e+00
m.xm1.msky130_fd_pr__nfet_g5v0d10v5#body = 1.577308e-11
m.xm1.msky130_fd_pr__nfet_g5v0d10v5#dbody = 3.143600e-11
m.xm1.msky130_fd_pr__nfet_g5v0d10v5#sbody = 1.588324e-11
m.xm2.msky130_fd_pr__pfet_g5v0d10v5#body = 2.100000e+00
m.xm2.msky130_fd_pr__pfet_g5v0d10v5#dbody = 2.100000e+00
m.xm2.msky130_fd_pr__pfet_g5v0d10v5#sbody = 2.100000e+00
m.xm3.msky130_fd_pr__pfet_g5v0d10v5#body = 2.100000e+00
m.xm3.msky130_fd_pr__pfet_g5v0d10v5#dbody = 2.100000e+00
m.xm3.msky130_fd_pr__pfet_g5v0d10v5#sbody = 2.100000e+00
m.xm4.msky130_fd_pr__pfet_g5v0d10v5#body = 2.100000e+00
m.xm4.msky130_fd_pr__pfet_g5v0d10v5#dbody = 2.100000e+00
m.xm4.msky130_fd_pr__pfet_g5v0d10v5#sbody = 2.100000e+00
m.xm5.msky130_fd_pr__pfet_g5v0d10v5#body = 2.100000e+00
m.xm5.msky130_fd_pr__pfet_g5v0d10v5#dbody = 2.100000e+00
m.xm5.msky130_fd_pr__pfet_g5v0d10v5#sbody = 2.100000e+00
m.xm6.msky130_fd_pr__nfet_g5v0d10v5#body = 1.134199e-11
m.xm6.msky130_fd_pr__nfet_g5v0d10v5#dbody = 2.835496e-11
m.xm6.msky130_fd_pr__nfet_g5v0d10v5#sbody = 5.670998e-12
m.xm7.msky130_fd_pr__pfet_g5v0d10v5#body = 2.100000e+00
m.xm7.msky130_fd_pr__pfet_g5v0d10v5#dbody = 2.100000e+00
m.xm7.msky130_fd_pr__pfet_g5v0d10v5#sbody = 2.100000e+00
m.xm8.msky130_fd_pr__pfet_g5v0d10v5#body = 2.100000e+00
m.xm8.msky130_fd_pr__pfet_g5v0d10v5#dbody = 2.100000e+00
m.xm8.msky130_fd_pr__pfet_g5v0d10v5#sbody = 2.100000e+00
m.xm9.msky130_fd_pr__nfet_g5v0d10v5#body = 1.645354e-11
m.xm9.msky130_fd_pr__nfet_g5v0d10v5#dbody = 3.398910e-11
m.xm9.msky130_fd_pr__nfet_g5v0d10v5#sbody = 1.537151e-11
m.xm10.msky130_fd_pr__nfet_g5v0d10v5#body = 1.625466e-11
m.xm10.msky130_fd_pr__nfet_g5v0d10v5#dbody = 3.349191e-11
m.xm10.msky130_fd_pr__nfet_g5v0d10v5#sbody = 1.527208e-11
m.xm11.msky130_fd_pr__pfet_g5v0d10v5#body = 2.100000e+00
m.xm11.msky130_fd_pr__pfet_g5v0d10v5#dbody = 2.100000e+00
m.xm11.msky130_fd_pr__pfet_g5v0d10v5#sbody = 2.100000e+00
m.xm12.msky130_fd_pr__pfet_g5v0d10v5#body = 2.100000e+00
m.xm12.msky130_fd_pr__pfet_g5v0d10v5#dbody = 2.100000e+00
m.xm12.msky130_fd_pr__pfet_g5v0d10v5#sbody = 2.100000e+00
m.xm13.msky130_fd_pr__nfet_g5v0d10v5#body = 3.571015e-12
m.xm13.msky130_fd_pr__nfet_g5v0d10v5#dbody = 8.927525e-12
m.xm13.msky130_fd_pr__nfet_g5v0d10v5#sbody = 1.785519e-12
m.xm14.msky130_fd_pr__pfet_g5v0d10v5#body = 2.100000e+00
m.xm14.msky130_fd_pr__pfet_g5v0d10v5#dbody = 2.100000e+00
m.xm14.msky130_fd_pr__pfet_g5v0d10v5#sbody = 2.100000e+00
m.xm15.msky130_fd_pr__nfet_g5v0d10v5#body = 2.783589e-17
m.xm15.msky130_fd_pr__nfet_g5v0d10v5#dbody = 6.958726e-17
m.xm15.msky130_fd_pr__nfet_g5v0d10v5#sbody = 1.392040e-17
m.xm16.msky130_fd_pr__nfet_g5v0d10v5#body = 4.150631e-11
m.xm16.msky130_fd_pr__nfet_g5v0d10v5#dbody = 7.326180e-11
m.xm16.msky130_fd_pr__nfet_g5v0d10v5#sbody = 5.125712e-11
m.xm17.msky130_fd_pr__pfet_g5v0d10v5#body = 2.100000e+00
m.xm17.msky130_fd_pr__pfet_g5v0d10v5#dbody = 2.100000e+00
m.xm17.msky130_fd_pr__pfet_g5v0d10v5#sbody = 2.100000e+00
m.xm18.msky130_fd_pr__nfet_g5v0d10v5#body = 1.725472e-11
m.xm18.msky130_fd_pr__nfet_g5v0d10v5#dbody = 4.313505e-11
m.xm18.msky130_fd_pr__nfet_g5v0d10v5#sbody = 8.627371e-12
m.xm19.msky130_fd_pr__nfet_g5v0d10v5#body = 1.580922e-11
m.xm19.msky130_fd_pr__nfet_g5v0d10v5#dbody = 3.152635e-11
m.xm19.msky130_fd_pr__nfet_g5v0d10v5#sbody = 1.590131e-11
m.xm20.msky130_fd_pr__nfet_g5v0d10v5#body = 1.136359e-11
m.xm20.msky130_fd_pr__nfet_g5v0d10v5#dbody = 2.840897e-11
m.xm20.msky130_fd_pr__nfet_g5v0d10v5#sbody = 5.681809e-12
m.xm22.msky130_fd_pr__nfet_g5v0d10v5#body = 4.001064e-12
m.xm22.msky130_fd_pr__nfet_g5v0d10v5#dbody = 1.000265e-11
m.xm22.msky130_fd_pr__nfet_g5v0d10v5#sbody = 2.000537e-12
m.xm24.msky130_fd_pr__pfet_g5v0d10v5#body = 2.100000e+00
m.xm24.msky130_fd_pr__pfet_g5v0d10v5#dbody = 2.100000e+00
m.xm24.msky130_fd_pr__pfet_g5v0d10v5#sbody = 2.100000e+00
m.xm26.msky130_fd_pr__pfet_g5v0d10v5#body = 2.100000e+00
m.xm26.msky130_fd_pr__pfet_g5v0d10v5#dbody = 2.100000e+00
m.xm26.msky130_fd_pr__pfet_g5v0d10v5#sbody = 2.100000e+00
mir = 9.416324e-01
net1 = 7.215486e-01
net2 = 2.141870e-06
net3 = 7.815372e-01
net4 = 3.195220e-01
net5 = 9.445237e-01
net6 = 9.067957e-01
net7 = 7.815082e-01
net8 = 1.014346e+00
net9 = 1.030256e+00
net10 = 2.855523e-01
net11 = 1.380179e+00
net12 = 1.380179e+00
net13 = 0.000000e+00
out = 1.380179e+00
pos = 1.191025e+00
q.xq2.qsky130_fd_pr__pnp_05v5_w0p68l0p68#collcx = 2.338653e-03
q.xq3.qsky130_fd_pr__pnp_05v5_w0p68l0p68#collcx = 2.939343e-04
q.xq4.qsky130_fd_pr__pnp_05v5_w0p68l0p68#collcx = 2.939343e-04
q.xq8.qsky130_fd_pr__pnp_05v5_w0p68l0p68#collcx = 2.939343e-04
q.xq10.qsky130_fd_pr__pnp_05v5_w0p68l0p68#collcx = 2.939343e-04
q.xq12.qsky130_fd_pr__pnp_05v5_w0p68l0p68#collcx = 2.939343e-04
q.xq14.qsky130_fd_pr__pnp_05v5_w0p68l0p68#collcx = 2.939343e-04
q.xq16.qsky130_fd_pr__pnp_05v5_w0p68l0p68#collcx = 2.939343e-04
q.xq18.qsky130_fd_pr__pnp_05v5_w0p68l0p68#collcx = 2.939343e-04
vb = 9.089585e-01
vdd = 2.100000e+00
vs#branch = -1.81841e-04
vt#branch = 0.000000e+00
xc1.a = 0.000000e+00
xc1.b1 = 0.000000e+00
xc3.a = 1.380179e+00
xc3.b1 = 1.380179e+00
xr1.xsky130_fd_pr__res_xhigh_po_0p69.ra = 7.843992e-01
xr2.xsky130_fd_pr__res_xhigh_po_0p69.ra = 7.844282e-01
xr3.xsky130_fd_pr__res_xhigh_po_0p69.ra = 1.951267e-03
xr4.xsky130_fd_pr__res_xhigh_po_0p69.ra = 7.225254e-01
xr5.xsky130_fd_pr__res_xhigh_po_0p69.ra = 1.951190e-03
xr6.xsky130_fd_pr__res_xhigh_po_0p69.ra = 3.072904e-03
xr7.xsky130_fd_pr__res_xhigh_po_0p69.ra = 1.380179e+00
xr8.xsky130_fd_pr__res_xhigh_po_0p69.ra = 1.196133e+00
xr9.xsky130_fd_pr__res_xhigh_po_0p69.ra = 5.356580e-03
Doing analysis at TEMP = 27.000000 and TNOM = 27.000000


No. of Data Rows : 91
Note: Starting true gmin stepping
Trying gmin =   1.0000E-03 Note: One successful gmin step
Trying gmin =   1.0000E-04 Note: One successful gmin step
Trying gmin =   1.0000E-05 Note: One successful gmin step
Trying gmin =   1.0000E-06 Note: One successful gmin step
Trying gmin =   1.0000E-07 Note: One successful gmin step
Trying gmin =   1.0000E-08 Warning: Further gmin increment
Trying gmin =   5.6234E-08 Note: One successful gmin step
Trying gmin =   2.3714E-08 Warning: Further gmin increment
Trying gmin =   4.5316E-08 Warning: Further gmin increment
Trying gmin =   5.3280E-08 Note: One successful gmin step
Trying gmin =   4.9137E-08 Note: One successful gmin step
Trying gmin =   4.3518E-08 Warning: Further gmin increment
Trying gmin =   4.7668E-08 Note: One successful gmin step
Trying gmin =   4.5546E-08 Warning: Further gmin increment
Trying gmin =   4.7128E-08 Note: One successful gmin step
Trying gmin =   4.6330E-08 Note: One successful gmin step
Trying gmin =   4.5158E-08 Warning: Further gmin increment
Trying gmin =   4.6034E-08 Warning: Further gmin increment
Trying gmin =   4.6256E-08 Warning: Further gmin increment
Trying gmin =   4.6312E-08 Note: One successful gmin step
Trying gmin =   4.6284E-08 Note: One successful gmin step
Trying gmin =   4.6242E-08 Warning: Further gmin increment
Trying gmin =   4.6273E-08 Note: One successful gmin step
Trying gmin =   4.6258E-08 Warning: Further gmin increment
Trying gmin =   4.6269E-08 Note: One successful gmin step
Trying gmin =   4.6264E-08 Warning: Further gmin increment
Trying gmin =   4.6268E-08 Note: One successful gmin step
Trying gmin =   4.6266E-08 Warning: Last gmin step failed
Warning: True gmin stepping failed
Note: Starting dynamic gmin stepping
Trying gmin =   1.0000E-03 Note: One successful gmin step
Trying gmin =   1.0000E-04 Note: One successful gmin step
Trying gmin =   1.0000E-05 Warning: Further gmin increment
Trying gmin =   5.6234E-05 Note: One successful gmin step
Trying gmin =   2.3714E-05 Note: One successful gmin step
Trying gmin =   6.4938E-06 Warning: Further gmin increment
Trying gmin =   1.7154E-05 Note: One successful gmin step
Trying gmin =   1.0554E-05 Note: One successful gmin step
Trying gmin =   8.2788E-06 Note: One successful gmin step
Trying gmin =   5.7513E-06 Note: One successful gmin step
Trying gmin =   3.3301E-06 Note: One successful gmin step
Trying gmin =   1.9282E-06 Note: One successful gmin step
Trying gmin =   8.4957E-07 Note: One successful gmin step
Trying gmin =   2.4846E-07 Note: One successful gmin step
Trying gmin =   3.9297E-08 Warning: Further gmin increment
Trying gmin =   1.5669E-07 Warning: Further gmin increment
Trying gmin =   2.2142E-07 Note: One successful gmin step
Trying gmin =   1.8626E-07 Warning: Further gmin increment
Trying gmin =   2.1205E-07 Warning: Further gmin increment
Trying gmin =   2.1904E-07 Note: One successful gmin step
Trying gmin =   2.1551E-07 Note: One successful gmin step
Trying gmin =   2.1034E-07 Warning: Further gmin increment
Trying gmin =   2.1421E-07 Note: One successful gmin step
Trying gmin =   2.1226E-07 Warning: Further gmin increment
Trying gmin =   2.1372E-07 Note: One successful gmin step
Trying gmin =   2.1299E-07 Note: One successful gmin step
Trying gmin =   2.1190E-07 Warning: Further gmin increment
Trying gmin =   2.1272E-07 Note: One successful gmin step
Trying gmin =   2.1231E-07 Warning: Further gmin increment
Trying gmin =   2.1262E-07 Warning: Further gmin increment
Trying gmin =   2.1269E-07 Warning: Further gmin increment
Trying gmin =   2.1271E-07 Warning: Last gmin step failed
Warning: Dynamic gmin stepping failed
Note: Starting source stepping
Supplies reduced to   0.0000% Note: One successful source step
Supplies reduced to   0.1000% Note: One successful source step
Supplies reduced to   0.2000% Note: One successful source step
Supplies reduced to   0.3500% Note: One successful source step
Supplies reduced to   0.5750% Note: One successful source step
Supplies reduced to   0.9125% Note: One successful source step
Supplies reduced to   1.4188% Note: One successful source step
Supplies reduced to   2.1781% Note: One successful source step
Supplies reduced to   3.3172% Note: One successful source step
Supplies reduced to   5.0258% Note: One successful source step
Supplies reduced to   7.5887% Note: One successful source step
Supplies reduced to  11.4330% Note: One successful source step
Supplies reduced to  17.1995% Note: One successful source step
Supplies reduced to  25.8493% Supplies reduced to  17.1995% Note: One successful source step
Supplies reduced to  18.1995% Note: One successful source step
Supplies reduced to  19.6995% Note: One successful source step
Supplies reduced to  21.9495% Supplies reduced to  19.6995% Note: One successful source step
Supplies reduced to  20.0370% Note: One successful source step
Supplies reduced to  20.5433% Note: One successful source step
Supplies reduced to  21.3026% Note: One successful source step
Supplies reduced to  22.4417% Note: One successful source step
Supplies reduced to  24.1503% Note: One successful source step
Supplies reduced to  26.7132% Note: One successful source step
Supplies reduced to  30.5575% Note: One successful source step
Supplies reduced to  36.3240% Note: One successful source step
Supplies reduced to  44.9738% Supplies reduced to  36.3240% Note: One successful source step
Supplies reduced to  37.3240% Note: One successful source step
Supplies reduced to  38.8240% Note: One successful source step
Supplies reduced to  41.0740% Note: One successful source step
Supplies reduced to  44.4490% Note: One successful source step
Supplies reduced to  49.5115% Note: One successful source step
Supplies reduced to  57.1053% Note: One successful source step
Supplies reduced to  68.4959% Note: One successful source step
Supplies reduced to  85.5818% Supplies reduced to  68.4959% Note: One successful source step
Supplies reduced to  69.4959% Note: One successful source step
Supplies reduced to  70.9959% Note: One successful source step
Supplies reduced to  73.2459% Note: One successful source step
Supplies reduced to  76.6209% Note: One successful source step
Supplies reduced to  81.6834% Supplies reduced to  76.6209% Note: One successful source step
Supplies reduced to  77.3803% Note: One successful source step
Supplies reduced to  78.5193% Note: One successful source step
Supplies reduced to  80.2279% Supplies reduced to  78.5193% Note: One successful source step
Supplies reduced to  78.7756% Note: One successful source step
Supplies reduced to  79.1601% Note: One successful source step
Supplies reduced to  79.7367% Supplies reduced to  79.1601% Note: One successful source step
Supplies reduced to  79.2466% Note: One successful source step
Supplies reduced to  79.3763% Note: One successful source step
Supplies reduced to  79.5709% Supplies reduced to  79.3763% Note: One successful source step
Supplies reduced to  79.4055% Note: One successful source step
Supplies reduced to  79.4493% Note: One successful source step
Supplies reduced to  79.5150% Note: One successful source step
Supplies reduced to  79.6135% Supplies reduced to  79.5150% Note: One successful source step
Supplies reduced to  79.5297% Note: One successful source step
Supplies reduced to  79.5519% Supplies reduced to  79.5297% Note: One successful source step
Supplies reduced to  79.5331% Supplies reduced to  79.5297% Note: One successful source step
Supplies reduced to  79.5302% Note: One successful source step
Supplies reduced to  79.5310% Note: One successful source step
Supplies reduced to  79.5321% Note: One successful source step
Supplies reduced to  79.5338% Supplies reduced to  79.5321% Note: One successful source step
Supplies reduced to  79.5324% Supplies reduced to  79.5321% Note: One successful source step
Supplies reduced to  79.5322% Note: One successful source step
Warning: source stepping failed
doAnalyses: Too many iterations without convergence

dc simulation(s) aborted
Error(parse.c--checkvalid): vldo_sup_2_8: zero length vector.
Error: RHS "abs((vldo_sup_2_8-vldo_sup_2)/0.8)" invalid
Error(parse.c--checkvalid): line_reg: zero length vector.
Error(parse.c--checkvalid): vin: zero length vector.
Error: RHS "vin-1.764" invalid
Error(parse.c--checkvalid): dropout: zero length vector.
Error: no such vector dropout
Note: No ".plot", ".print", or ".fourier" lines; no simulations run
pm                  =  5.674144e+01
Doing analysis at TEMP = 27.000000 and TNOM = 27.000000


No. of Data Rows : 91
psrr100             =  -7.228798e+01
psrr100k            =  -2.611586e+01
Doing analysis at TEMP = 27.000000 and TNOM = 27.000000


No. of Data Rows : 86
temp_coeff = 1.335596e+02
Doing analysis at TEMP = 27.000000 and TNOM = 27.000000


Error: measure  vldo_sup_2  (AT) : out of interval
 meas dc vldo_sup_2 find ldo_out at=2 failed!


Error: measure  vldo_sup_2_8  (AT) : out of interval
 meas dc vldo_sup_2_8 find ldo_out at=2.8 failed!


Error: measure  vin  (WHEN) : out of interval
 meas dc vin when v(ldo_out)=1.764 failed!

