 Reference value :  0.00000e+00
No compatibility mode selected!


Circuit: * ldo netlist 

Doing analysis at TEMP = 85.000000 and TNOM = 27.000000


No. of Data Rows : 1
bg_out = 1.200826e+00
inn = 1.146617e+00
inp = 1.146606e+00
l1#branch = 5.551115e-17
ldo_out = 1.806781e+00
m.xm1.msky130_fd_pr__nfet_g5v0d10v5#body = 3.030102e-11
m.xm1.msky130_fd_pr__nfet_g5v0d10v5#dbody = 5.697091e-11
m.xm1.msky130_fd_pr__nfet_g5v0d10v5#sbody = 3.393215e-11
m.xm2.msky130_fd_pr__pfet_g5v0d10v5#body = 2.500000e+00
m.xm2.msky130_fd_pr__pfet_g5v0d10v5#dbody = 2.500000e+00
m.xm2.msky130_fd_pr__pfet_g5v0d10v5#sbody = 2.500000e+00
m.xm3.msky130_fd_pr__pfet_g5v0d10v5#body = 2.500000e+00
m.xm3.msky130_fd_pr__pfet_g5v0d10v5#dbody = 2.500000e+00
m.xm3.msky130_fd_pr__pfet_g5v0d10v5#sbody = 2.500000e+00
m.xm4.msky130_fd_pr__pfet_g5v0d10v5#body = 2.500000e+00
m.xm4.msky130_fd_pr__pfet_g5v0d10v5#dbody = 2.500000e+00
m.xm4.msky130_fd_pr__pfet_g5v0d10v5#sbody = 2.500000e+00
m.xm5.msky130_fd_pr__pfet_g5v0d10v5#body = 2.500000e+00
m.xm5.msky130_fd_pr__pfet_g5v0d10v5#dbody = 2.500000e+00
m.xm5.msky130_fd_pr__pfet_g5v0d10v5#sbody = 2.500000e+00
m.xm6.msky130_fd_pr__nfet_g5v0d10v5#body = 1.910091e-11
m.xm6.msky130_fd_pr__nfet_g5v0d10v5#dbody = 4.775217e-11
m.xm6.msky130_fd_pr__nfet_g5v0d10v5#sbody = 9.550568e-12
m.xm7.msky130_fd_pr__pfet_g5v0d10v5#body = 2.500000e+00
m.xm7.msky130_fd_pr__pfet_g5v0d10v5#dbody = 2.500000e+00
m.xm7.msky130_fd_pr__pfet_g5v0d10v5#sbody = 2.500000e+00
m.xm8.msky130_fd_pr__pfet_g5v0d10v5#body = 2.500000e+00
m.xm8.msky130_fd_pr__pfet_g5v0d10v5#dbody = 2.500000e+00
m.xm8.msky130_fd_pr__pfet_g5v0d10v5#sbody = 2.500000e+00
m.xm9.msky130_fd_pr__nfet_g5v0d10v5#body = 2.854271e-11
m.xm9.msky130_fd_pr__nfet_g5v0d10v5#dbody = 5.522764e-11
m.xm9.msky130_fd_pr__nfet_g5v0d10v5#sbody = 3.040048e-11
m.xm10.msky130_fd_pr__nfet_g5v0d10v5#body = 2.829948e-11
m.xm10.msky130_fd_pr__nfet_g5v0d10v5#dbody = 5.461958e-11
m.xm10.msky130_fd_pr__nfet_g5v0d10v5#sbody = 3.027887e-11
m.xm11.msky130_fd_pr__pfet_g5v0d10v5#body = 2.500000e+00
m.xm11.msky130_fd_pr__pfet_g5v0d10v5#dbody = 2.500000e+00
m.xm11.msky130_fd_pr__pfet_g5v0d10v5#sbody = 2.500000e+00
m.xm12.msky130_fd_pr__pfet_g5v0d10v5#body = 2.500000e+00
m.xm12.msky130_fd_pr__pfet_g5v0d10v5#dbody = 2.500000e+00
m.xm12.msky130_fd_pr__pfet_g5v0d10v5#sbody = 2.500000e+00
m.xm13.msky130_fd_pr__nfet_g5v0d10v5#body = 6.416852e-12
m.xm13.msky130_fd_pr__nfet_g5v0d10v5#dbody = 1.604206e-11
m.xm13.msky130_fd_pr__nfet_g5v0d10v5#sbody = 3.208495e-12
m.xm14.msky130_fd_pr__pfet_g5v0d10v5#body = 2.500000e+00
m.xm14.msky130_fd_pr__pfet_g5v0d10v5#dbody = 2.500000e+00
m.xm14.msky130_fd_pr__pfet_g5v0d10v5#sbody = 2.500000e+00
m.xm15.msky130_fd_pr__nfet_g5v0d10v5#body = 1.409726e-14
m.xm15.msky130_fd_pr__nfet_g5v0d10v5#dbody = 3.524195e-14
m.xm15.msky130_fd_pr__nfet_g5v0d10v5#sbody = 7.049832e-15
m.xm16.msky130_fd_pr__nfet_g5v0d10v5#body = 5.606308e-11
m.xm16.msky130_fd_pr__nfet_g5v0d10v5#dbody = 1.010119e-10
m.xm16.msky130_fd_pr__nfet_g5v0d10v5#sbody = 6.717734e-11
m.xm17.msky130_fd_pr__pfet_g5v0d10v5#body = 2.500000e+00
m.xm17.msky130_fd_pr__pfet_g5v0d10v5#dbody = 2.500000e+00
m.xm17.msky130_fd_pr__pfet_g5v0d10v5#sbody = 2.500000e+00
m.xm18.msky130_fd_pr__nfet_g5v0d10v5#body = 2.390110e-11
m.xm18.msky130_fd_pr__nfet_g5v0d10v5#dbody = 5.906740e-11
m.xm18.msky130_fd_pr__nfet_g5v0d10v5#sbody = 1.195063e-11
m.xm19.msky130_fd_pr__nfet_g5v0d10v5#body = 3.031796e-11
m.xm19.msky130_fd_pr__nfet_g5v0d10v5#dbody = 5.701325e-11
m.xm19.msky130_fd_pr__nfet_g5v0d10v5#sbody = 3.394062e-11
m.xm20.msky130_fd_pr__nfet_g5v0d10v5#body = 1.237587e-11
m.xm20.msky130_fd_pr__nfet_g5v0d10v5#dbody = 3.093960e-11
m.xm20.msky130_fd_pr__nfet_g5v0d10v5#sbody = 6.188009e-12
m.xm22.msky130_fd_pr__nfet_g5v0d10v5#body = 1.268627e-11
m.xm22.msky130_fd_pr__nfet_g5v0d10v5#dbody = 3.171556e-11
m.xm22.msky130_fd_pr__nfet_g5v0d10v5#sbody = 6.343244e-12
m.xm24.msky130_fd_pr__pfet_g5v0d10v5#body = 2.500000e+00
m.xm24.msky130_fd_pr__pfet_g5v0d10v5#dbody = 2.500000e+00
m.xm24.msky130_fd_pr__pfet_g5v0d10v5#sbody = 2.500000e+00
m.xm26.msky130_fd_pr__pfet_g5v0d10v5#body = 2.500000e+00
m.xm26.msky130_fd_pr__pfet_g5v0d10v5#dbody = 2.500000e+00
m.xm26.msky130_fd_pr__pfet_g5v0d10v5#sbody = 2.500000e+00
mir = 1.253601e+00
net1 = 6.298386e-01
net2 = 2.727657e-05
net3 = 7.034000e-01
net4 = 3.320700e-01
net5 = 1.254956e+00
net6 = 8.452100e-01
net7 = 7.033882e-01
net8 = 1.331401e+00
net9 = 1.350859e+00
net10 = 3.577781e-01
net11 = 1.729103e+00
net12 = 1.729103e+00
net13 = 0.000000e+00
out = 1.729103e+00
pos = 1.201036e+00
q.xq2.qsky130_fd_pr__pnp_05v5_w0p68l0p68#collcx = 2.966341e-03
q.xq3.qsky130_fd_pr__pnp_05v5_w0p68l0p68#collcx = 3.743641e-04
q.xq4.qsky130_fd_pr__pnp_05v5_w0p68l0p68#collcx = 3.743641e-04
q.xq8.qsky130_fd_pr__pnp_05v5_w0p68l0p68#collcx = 3.743641e-04
q.xq10.qsky130_fd_pr__pnp_05v5_w0p68l0p68#collcx = 3.743641e-04
q.xq12.qsky130_fd_pr__pnp_05v5_w0p68l0p68#collcx = 3.743641e-04
q.xq14.qsky130_fd_pr__pnp_05v5_w0p68l0p68#collcx = 3.743641e-04
q.xq16.qsky130_fd_pr__pnp_05v5_w0p68l0p68#collcx = 3.743641e-04
q.xq18.qsky130_fd_pr__pnp_05v5_w0p68l0p68#collcx = 3.743641e-04
vb = 8.344959e-01
vdd = 2.500000e+00
vs#branch = -1.89639e-04
vt#branch = 0.000000e+00
xc1.a = 0.000000e+00
xc1.b1 = 0.000000e+00
xc3.a = 1.729103e+00
xc3.b1 = 1.729103e+00
xr1.xsky130_fd_pr__res_xhigh_po_0p69.ra = 7.092055e-01
xr2.xsky130_fd_pr__res_xhigh_po_0p69.ra = 7.092173e-01
xr3.xsky130_fd_pr__res_xhigh_po_0p69.ra = 3.468176e-03
xr4.xsky130_fd_pr__res_xhigh_po_0p69.ra = 6.322199e-01
xr5.xsky130_fd_pr__res_xhigh_po_0p69.ra = 3.468115e-03
xr6.xsky130_fd_pr__res_xhigh_po_0p69.ra = 6.163310e-03
xr7.xsky130_fd_pr__res_xhigh_po_0p69.ra = 1.729103e+00
xr8.xsky130_fd_pr__res_xhigh_po_0p69.ra = 1.211281e+00
xr9.xsky130_fd_pr__res_xhigh_po_0p69.ra = 1.074648e-02
Doing analysis at TEMP = 85.000000 and TNOM = 27.000000


No. of Data Rows : 91
Note: Starting true gmin stepping
Trying gmin =   1.0000E-03 Note: One successful gmin step
Trying gmin =   1.0000E-04 Note: One successful gmin step
Trying gmin =   1.0000E-05 Note: One successful gmin step
Trying gmin =   1.0000E-06 Note: One successful gmin step
Trying gmin =   1.0000E-07 Note: One successful gmin step
Trying gmin =   1.0000E-08 Warning: Further gmin increment
Trying gmin =   5.6234E-08 Warning: Further gmin increment
Trying gmin =   8.6596E-08 Note: One successful gmin step
Trying gmin =   6.9783E-08 Note: One successful gmin step
Trying gmin =   5.6234E-08 Note: One successful gmin step
Trying gmin =   4.0679E-08 Note: One successful gmin step
Trying gmin =   2.5029E-08 Note: One successful gmin step
Trying gmin =   1.2079E-08 Note: One successful gmin step
Trying gmin =   4.0497E-09 Note: One successful gmin step
Trying gmin =   7.8615E-10 Note: One successful gmin step
Trying gmin =   7.8615E-11 Note: One successful gmin step
Trying gmin =   7.8615E-12 Note: One successful gmin step
Trying gmin =   1.0000E-12 Note: One successful gmin step
Note: True gmin stepping completed
 Reference value :  1.46000e+00Note: Starting true gmin stepping
Trying gmin =   1.0000E-03 Note: One successful gmin step
Trying gmin =   1.0000E-04 Note: One successful gmin step
Trying gmin =   1.0000E-05 Note: One successful gmin step
Trying gmin =   1.0000E-06 Note: One successful gmin step
Trying gmin =   1.0000E-07 Note: One successful gmin step
Trying gmin =   1.0000E-08 Warning: Further gmin increment
Trying gmin =   5.6234E-08 Warning: Further gmin increment
Trying gmin =   8.6596E-08 Note: One successful gmin step
Trying gmin =   6.9783E-08 Note: One successful gmin step
Trying gmin =   5.6234E-08 Note: One successful gmin step
Trying gmin =   4.0679E-08 Note: One successful gmin step
Trying gmin =   2.5029E-08 Note: One successful gmin step
Trying gmin =   1.2079E-08 Note: One successful gmin step
Trying gmin =   4.0497E-09 Note: One successful gmin step
Trying gmin =   7.8615E-10 Note: One successful gmin step
Trying gmin =   7.8615E-11 Note: One successful gmin step
Trying gmin =   7.8615E-12 Note: One successful gmin step
Trying gmin =   1.0000E-12 Note: One successful gmin step
Note: True gmin stepping completed
 Reference value :  1.44000e+00Note: Starting true gmin stepping
Trying gmin =   1.0000E-03 Note: One successful gmin step
Trying gmin =   1.0000E-04 Note: One successful gmin step
Trying gmin =   1.0000E-05 Note: One successful gmin step
Trying gmin =   1.0000E-06 Note: One successful gmin step
Trying gmin =   1.0000E-07 Note: One successful gmin step
Trying gmin =   1.0000E-08 Warning: Further gmin increment
Trying gmin =   5.6234E-08 Note: One successful gmin step
Trying gmin =   3.1623E-08 Note: One successful gmin step
Trying gmin =   1.3335E-08 Warning: Further gmin increment
Trying gmin =   2.5483E-08 Note: One successful gmin step
Trying gmin =   1.8434E-08 Note: One successful gmin step
Trying gmin =   1.1342E-08 Note: One successful gmin step
Trying gmin =   5.4737E-09 Note: One successful gmin step
Trying gmin =   1.8352E-09 Note: One successful gmin step
Trying gmin =   3.5625E-10 Note: One successful gmin step
Trying gmin =   3.5625E-11 Note: One successful gmin step
Trying gmin =   3.5625E-12 Note: One successful gmin step
Trying gmin =   1.0000E-12 Note: One successful gmin step
Note: True gmin stepping completed
 Reference value :  1.24000e+00pm                  =  5.415262e+01
Doing analysis at TEMP = 85.000000 and TNOM = 27.000000


No. of Data Rows : 91
psrr100             =  -5.383233e+01
psrr100k            =  -2.593393e+01
Doing analysis at TEMP = 85.000000 and TNOM = 27.000000


No. of Data Rows : 86
temp_coeff = 1.471419e+02
Doing analysis at TEMP = 85.000000 and TNOM = 27.000000


No. of Data Rows : 141
vldo_sup_2          =  1.804993e+00
vldo_sup_2_8        =  1.807280e+00
line_reg = 2.858750e-03
Note: No ".plot", ".print", or ".fourier" lines; no simulations run
vin                 =  1.764180e+00
dropout = 1.800000e-04
