 Reference value :  0.00000e+00
No compatibility mode selected!


Circuit: * ldo netlist 

Doing analysis at TEMP = 27.000000 and TNOM = 27.000000


No. of Data Rows : 1
bg_out = 1.092835e+00
inn = 1.134553e+00
inp = 1.134512e+00
l1#branch = 0.000000e+00
ldo_out = 1.796253e+00
m.xm1.msky130_fd_pr__nfet_g5v0d10v5#body = 1.501389e-11
m.xm1.msky130_fd_pr__nfet_g5v0d10v5#dbody = 3.110822e-11
m.xm1.msky130_fd_pr__nfet_g5v0d10v5#sbody = 1.393344e-11
m.xm2.msky130_fd_pr__pfet_g5v0d10v5#body = 2.100000e+00
m.xm2.msky130_fd_pr__pfet_g5v0d10v5#dbody = 2.100000e+00
m.xm2.msky130_fd_pr__pfet_g5v0d10v5#sbody = 2.100000e+00
m.xm3.msky130_fd_pr__pfet_g5v0d10v5#body = 2.100000e+00
m.xm3.msky130_fd_pr__pfet_g5v0d10v5#dbody = 2.100000e+00
m.xm3.msky130_fd_pr__pfet_g5v0d10v5#sbody = 2.100000e+00
m.xm4.msky130_fd_pr__pfet_g5v0d10v5#body = 2.100000e+00
m.xm4.msky130_fd_pr__pfet_g5v0d10v5#dbody = 2.100000e+00
m.xm4.msky130_fd_pr__pfet_g5v0d10v5#sbody = 2.100000e+00
m.xm5.msky130_fd_pr__pfet_g5v0d10v5#body = 2.100000e+00
m.xm5.msky130_fd_pr__pfet_g5v0d10v5#dbody = 2.100000e+00
m.xm5.msky130_fd_pr__pfet_g5v0d10v5#sbody = 2.100000e+00
m.xm6.msky130_fd_pr__nfet_g5v0d10v5#body = 1.132373e-11
m.xm6.msky130_fd_pr__nfet_g5v0d10v5#dbody = 2.830932e-11
m.xm6.msky130_fd_pr__nfet_g5v0d10v5#sbody = 5.661871e-12
m.xm7.msky130_fd_pr__pfet_g5v0d10v5#body = 2.100000e+00
m.xm7.msky130_fd_pr__pfet_g5v0d10v5#dbody = 2.100000e+00
m.xm7.msky130_fd_pr__pfet_g5v0d10v5#sbody = 2.100000e+00
m.xm8.msky130_fd_pr__pfet_g5v0d10v5#body = 2.100000e+00
m.xm8.msky130_fd_pr__pfet_g5v0d10v5#dbody = 2.100000e+00
m.xm8.msky130_fd_pr__pfet_g5v0d10v5#sbody = 2.100000e+00
m.xm9.msky130_fd_pr__nfet_g5v0d10v5#body = 1.562963e-11
m.xm9.msky130_fd_pr__nfet_g5v0d10v5#dbody = 3.370166e-11
m.xm9.msky130_fd_pr__nfet_g5v0d10v5#sbody = 1.318723e-11
m.xm10.msky130_fd_pr__nfet_g5v0d10v5#body = 1.544198e-11
m.xm10.msky130_fd_pr__nfet_g5v0d10v5#dbody = 3.323254e-11
m.xm10.msky130_fd_pr__nfet_g5v0d10v5#sbody = 1.309341e-11
m.xm11.msky130_fd_pr__pfet_g5v0d10v5#body = 2.100000e+00
m.xm11.msky130_fd_pr__pfet_g5v0d10v5#dbody = 2.100000e+00
m.xm11.msky130_fd_pr__pfet_g5v0d10v5#sbody = 2.100000e+00
m.xm12.msky130_fd_pr__pfet_g5v0d10v5#body = 2.100000e+00
m.xm12.msky130_fd_pr__pfet_g5v0d10v5#dbody = 2.100000e+00
m.xm12.msky130_fd_pr__pfet_g5v0d10v5#sbody = 2.100000e+00
m.xm13.msky130_fd_pr__nfet_g5v0d10v5#body = 2.684852e-12
m.xm13.msky130_fd_pr__nfet_g5v0d10v5#dbody = 6.712118e-12
m.xm13.msky130_fd_pr__nfet_g5v0d10v5#sbody = 1.342437e-12
m.xm14.msky130_fd_pr__pfet_g5v0d10v5#body = 2.100000e+00
m.xm14.msky130_fd_pr__pfet_g5v0d10v5#dbody = 2.100000e+00
m.xm14.msky130_fd_pr__pfet_g5v0d10v5#sbody = 2.100000e+00
m.xm15.msky130_fd_pr__nfet_g5v0d10v5#body = 1.229706e-16
m.xm15.msky130_fd_pr__nfet_g5v0d10v5#dbody = 3.074180e-16
m.xm15.msky130_fd_pr__nfet_g5v0d10v5#sbody = 6.149380e-17
m.xm16.msky130_fd_pr__nfet_g5v0d10v5#body = 4.044056e-11
m.xm16.msky130_fd_pr__nfet_g5v0d10v5#dbody = 7.272893e-11
m.xm16.msky130_fd_pr__nfet_g5v0d10v5#sbody = 4.859274e-11
m.xm17.msky130_fd_pr__pfet_g5v0d10v5#body = 2.100000e+00
m.xm17.msky130_fd_pr__pfet_g5v0d10v5#dbody = 2.100000e+00
m.xm17.msky130_fd_pr__pfet_g5v0d10v5#sbody = 2.100000e+00
m.xm18.msky130_fd_pr__nfet_g5v0d10v5#body = 1.352997e-11
m.xm18.msky130_fd_pr__nfet_g5v0d10v5#dbody = 3.382491e-11
m.xm18.msky130_fd_pr__nfet_g5v0d10v5#sbody = 6.764999e-12
m.xm19.msky130_fd_pr__nfet_g5v0d10v5#body = 1.506979e-11
m.xm19.msky130_fd_pr__nfet_g5v0d10v5#dbody = 3.124798e-11
m.xm19.msky130_fd_pr__nfet_g5v0d10v5#sbody = 1.396139e-11
m.xm20.msky130_fd_pr__nfet_g5v0d10v5#body = 1.134493e-11
m.xm20.msky130_fd_pr__nfet_g5v0d10v5#dbody = 2.836231e-11
m.xm20.msky130_fd_pr__nfet_g5v0d10v5#sbody = 5.672478e-12
m.xm22.msky130_fd_pr__nfet_g5v0d10v5#body = 3.215959e-12
m.xm22.msky130_fd_pr__nfet_g5v0d10v5#dbody = 8.039893e-12
m.xm22.msky130_fd_pr__nfet_g5v0d10v5#sbody = 1.607984e-12
m.xm24.msky130_fd_pr__pfet_g5v0d10v5#body = 2.100000e+00
m.xm24.msky130_fd_pr__pfet_g5v0d10v5#dbody = 2.100000e+00
m.xm24.msky130_fd_pr__pfet_g5v0d10v5#sbody = 2.100000e+00
m.xm26.msky130_fd_pr__pfet_g5v0d10v5#body = 2.100000e+00
m.xm26.msky130_fd_pr__pfet_g5v0d10v5#dbody = 2.100000e+00
m.xm26.msky130_fd_pr__pfet_g5v0d10v5#sbody = 2.100000e+00
mir = 9.437053e-01
net1 = 7.203495e-01
net2 = 9.462186e-06
net3 = 7.801661e-01
net4 = 2.567137e-01
net5 = 9.481776e-01
net6 = 9.053354e-01
net7 = 7.801243e-01
net8 = 1.020225e+00
net9 = 1.035237e+00
net10 = 2.146593e-01
net11 = 1.082269e+00
net12 = 1.082269e+00
net13 = 0.000000e+00
out = 1.082269e+00
pos = 1.092996e+00
q.xq2.qsky130_fd_pr__pnp_05v5_w0p68l0p68#collcx = 2.239210e-03
q.xq3.qsky130_fd_pr__pnp_05v5_w0p68l0p68#collcx = 2.813640e-04
q.xq4.qsky130_fd_pr__pnp_05v5_w0p68l0p68#collcx = 2.813640e-04
q.xq8.qsky130_fd_pr__pnp_05v5_w0p68l0p68#collcx = 2.813640e-04
q.xq10.qsky130_fd_pr__pnp_05v5_w0p68l0p68#collcx = 2.813640e-04
q.xq12.qsky130_fd_pr__pnp_05v5_w0p68l0p68#collcx = 2.813640e-04
q.xq14.qsky130_fd_pr__pnp_05v5_w0p68l0p68#collcx = 2.813640e-04
q.xq16.qsky130_fd_pr__pnp_05v5_w0p68l0p68#collcx = 2.813640e-04
q.xq18.qsky130_fd_pr__pnp_05v5_w0p68l0p68#collcx = 2.813640e-04
vb = 9.074654e-01
vdd = 2.100000e+00
vs#branch = -1.01061e-02
vt#branch = 0.000000e+00
xc1.a = 0.000000e+00
xc1.b1 = 0.000000e+00
xc3.a = 1.082269e+00
xc3.b1 = 1.082269e+00
xr1.xsky130_fd_pr__res_xhigh_po_0p69.ra = 7.855710e-01
xr2.xsky130_fd_pr__res_xhigh_po_0p69.ra = 7.856128e-01
xr3.xsky130_fd_pr__res_xhigh_po_0p69.ra = 3.755778e-03
xr4.xsky130_fd_pr__res_xhigh_po_0p69.ra = 7.221418e-01
xr5.xsky130_fd_pr__res_xhigh_po_0p69.ra = 3.755564e-03
xr6.xsky130_fd_pr__res_xhigh_po_0p69.ra = 5.780496e-03
xr7.xsky130_fd_pr__res_xhigh_po_0p69.ra = 1.082269e+00
xr8.xsky130_fd_pr__res_xhigh_po_0p69.ra = 1.101780e+00
xr9.xsky130_fd_pr__res_xhigh_po_0p69.ra = 9.066891e-03
Doing analysis at TEMP = 27.000000 and TNOM = 27.000000


No. of Data Rows : 91
Error: no such vector PM
Note: Starting true gmin stepping
Trying gmin =   1.0000E-03 Note: One successful gmin step
Trying gmin =   1.0000E-04 Note: One successful gmin step
Trying gmin =   1.0000E-05 Note: One successful gmin step
Trying gmin =   1.0000E-06 Note: One successful gmin step
Trying gmin =   1.0000E-07 Note: One successful gmin step
Trying gmin =   1.0000E-08 Warning: Further gmin increment
Trying gmin =   5.6234E-08 Warning: Further gmin increment
Trying gmin =   8.6596E-08 Note: One successful gmin step
Trying gmin =   6.9783E-08 Warning: Further gmin increment
Trying gmin =   8.2047E-08 Note: One successful gmin step
Trying gmin =   7.5667E-08 Warning: Further gmin increment
Trying gmin =   8.0403E-08 Note: One successful gmin step
Trying gmin =   7.7999E-08 Warning: Further gmin increment
Trying gmin =   7.9795E-08 Note: One successful gmin step
Trying gmin =   7.8892E-08 Note: One successful gmin step
Trying gmin =   7.7556E-08 Warning: Further gmin increment
Trying gmin =   7.8556E-08 Note: One successful gmin step
Trying gmin =   7.8055E-08 Warning: Further gmin increment
Trying gmin =   7.8430E-08 Note: One successful gmin step
Trying gmin =   7.8242E-08 Warning: Further gmin increment
Trying gmin =   7.8383E-08 Note: One successful gmin step
Trying gmin =   7.8313E-08 Note: One successful gmin step
Trying gmin =   7.8207E-08 Warning: Further gmin increment
Trying gmin =   7.8286E-08 Warning: Further gmin increment
Trying gmin =   7.8306E-08 Note: One successful gmin step
Trying gmin =   7.8296E-08 Warning: Further gmin increment
Trying gmin =   7.8304E-08 Note: One successful gmin step
Trying gmin =   7.8300E-08 Warning: Last gmin step failed
Warning: True gmin stepping failed
Note: Starting dynamic gmin stepping
Trying gmin =   1.0000E-03 Note: One successful gmin step
Trying gmin =   1.0000E-04 Note: One successful gmin step
Trying gmin =   1.0000E-05 Note: One successful gmin step
Trying gmin =   1.0000E-06 Warning: Further gmin increment
Trying gmin =   5.6234E-06 Note: One successful gmin step
Trying gmin =   4.2170E-06 Note: One successful gmin step
Trying gmin =   2.7384E-06 Note: One successful gmin step
Trying gmin =   1.4330E-06 Note: One successful gmin step
Trying gmin =   5.4247E-07 Note: One successful gmin step
Trying gmin =   1.2635E-07 Warning: Further gmin increment
Trying gmin =   3.7685E-07 Note: One successful gmin step
Trying gmin =   2.1821E-07 Warning: Further gmin increment
Trying gmin =   3.2873E-07 Warning: Further gmin increment
Trying gmin =   3.6420E-07 Note: One successful gmin step
Trying gmin =   3.4601E-07 Warning: Further gmin increment
Trying gmin =   3.5957E-07 Warning: Further gmin increment
Trying gmin =   3.6304E-07 Note: One successful gmin step
Trying gmin =   3.6130E-07 Warning: Further gmin increment
Trying gmin =   3.6260E-07 Note: One successful gmin step
Trying gmin =   3.6195E-07 Warning: Further gmin increment
Trying gmin =   3.6244E-07 Note: One successful gmin step
Trying gmin =   3.6219E-07 Note: One successful gmin step
Trying gmin =   3.6183E-07 Warning: Further gmin increment
Trying gmin =   3.6210E-07 Warning: Further gmin increment
Trying gmin =   3.6217E-07 Note: One successful gmin step
Trying gmin =   3.6214E-07 Note: One successful gmin step
Trying gmin =   3.6208E-07 Warning: Further gmin increment
Trying gmin =   3.6212E-07 Note: One successful gmin step
Trying gmin =   3.6210E-07 Warning: Further gmin increment
Trying gmin =   3.6212E-07 Note: One successful gmin step
Trying gmin =   3.6211E-07 Warning: Last gmin step failed
Warning: Dynamic gmin stepping failed
Note: Starting source stepping
Supplies reduced to   0.0000% Note: One successful source step
Supplies reduced to   0.1000% Note: One successful source step
Supplies reduced to   0.2000% Note: One successful source step
Supplies reduced to   0.3500% Note: One successful source step
Supplies reduced to   0.5750% Note: One successful source step
Supplies reduced to   0.9125% Note: One successful source step
Supplies reduced to   1.4188% Note: One successful source step
Supplies reduced to   2.1781% Note: One successful source step
Supplies reduced to   3.3172% Note: One successful source step
Supplies reduced to   5.0258% Note: One successful source step
Supplies reduced to   7.5887% Note: One successful source step
Supplies reduced to  11.4330% Note: One successful source step
Supplies reduced to  17.1995% Note: One successful source step
Supplies reduced to  25.8493% Error: -9.81302e+165, 2 out of range for ^
Supplies reduced to  17.1995% Note: One successful source step
Supplies reduced to  18.1995% Note: One successful source step
Supplies reduced to  19.6995% Note: One successful source step
Supplies reduced to  21.9495% Note: One successful source step
Supplies reduced to  25.3245% Note: One successful source step
Supplies reduced to  30.3870% Note: One successful source step
Supplies reduced to  37.9808% Supplies reduced to  30.3870% Note: One successful source step
Supplies reduced to  31.1464% Note: One successful source step
Supplies reduced to  32.2854% Note: One successful source step
Supplies reduced to  33.9940% Note: One successful source step
Supplies reduced to  36.5569% Note: One successful source step
Supplies reduced to  40.4013% Note: One successful source step
Supplies reduced to  46.1678% Note: One successful source step
Supplies reduced to  54.8175% Note: One successful source step
Supplies reduced to  67.7922% Note: One successful source step
Supplies reduced to  87.2541% Supplies reduced to  67.7922% Note: One successful source step
Supplies reduced to  68.7922% Note: One successful source step
Supplies reduced to  70.2922% Note: One successful source step
Supplies reduced to  72.5422% Supplies reduced to  70.2922% Note: One successful source step
Supplies reduced to  70.6297% Note: One successful source step
Supplies reduced to  71.1359% Note: One successful source step
Supplies reduced to  71.8953% Supplies reduced to  71.1359% Note: One successful source step
Supplies reduced to  71.2498% Note: One successful source step
Supplies reduced to  71.4207% Note: One successful source step
Supplies reduced to  71.6770% Note: One successful source step
Supplies reduced to  72.0614% Supplies reduced to  71.6770% Note: One successful source step
Supplies reduced to  71.7346% Note: One successful source step
Supplies reduced to  71.8211% Supplies reduced to  71.7346% Note: One successful source step
Supplies reduced to  71.7476% Note: One successful source step
Supplies reduced to  71.7671% Supplies reduced to  71.7476% Note: One successful source step
Supplies reduced to  71.7505% Note: One successful source step
Supplies reduced to  71.7549% Note: One successful source step
Supplies reduced to  71.7615% Note: One successful source step
Supplies reduced to  71.7713% Supplies reduced to  71.7615% Note: One successful source step
Supplies reduced to  71.7630% Supplies reduced to  71.7615% Note: One successful source step
Supplies reduced to  71.7617% Note: One successful source step
Supplies reduced to  71.7620% Supplies reduced to  71.7617% Note: One successful source step
Supplies reduced to  71.7617% Note: One successful source step
Supplies reduced to  71.7618% Supplies reduced to  71.7617% Note: One successful source step
Supplies reduced to  71.7618% Note: One successful source step
Supplies reduced to  71.7618% Note: One successful source step
Supplies reduced to  71.7618% Warning: source stepping failed
doAnalyses: Too many iterations without convergence

dc simulation(s) aborted
Error(parse.c--checkvalid): vldo_sup_2_8: zero length vector.
Error: RHS "abs((vldo_sup_2_8-vldo_sup_2)/0.8)" invalid
Error(parse.c--checkvalid): line_reg: zero length vector.
Error(parse.c--checkvalid): vin: zero length vector.
Error: RHS "vin-1.764" invalid
Error(parse.c--checkvalid): dropout: zero length vector.
Error: no such vector dropout
Note: No ".plot", ".print", or ".fourier" lines; no simulations run

Error: measure  pm  (AT) : out of interval
 meas ac pm find p when vdb(ldo_out)=0 failed!

Doing analysis at TEMP = 27.000000 and TNOM = 27.000000


No. of Data Rows : 91
psrr100             =  -6.821788e+01
psrr100k            =  -2.682112e+01
Doing analysis at TEMP = 27.000000 and TNOM = 27.000000


No. of Data Rows : 86
temp_coeff = 3.559695e+01
Doing analysis at TEMP = 27.000000 and TNOM = 27.000000


Error: measure  vldo_sup_2  (AT) : out of interval
 meas dc vldo_sup_2 find ldo_out at=2 failed!


Error: measure  vldo_sup_2_8  (AT) : out of interval
 meas dc vldo_sup_2_8 find ldo_out at=2.8 failed!


Error: measure  vin  (WHEN) : out of interval
 meas dc vin when v(ldo_out)=1.764 failed!

