 Reference value :  0.00000e+00
No compatibility mode selected!


Circuit: * ldo netlist 

Doing analysis at TEMP = 0.000000 and TNOM = 27.000000


No. of Data Rows : 1
bg_out = 6.018582e-01
inn = 8.142859e-01
inp = 8.140242e-01
l1#branch = 0.000000e+00
ldo_out = 9.079761e-01
m.xm1.msky130_fd_pr__nfet_g5v0d10v5#body = 1.614561e-11
m.xm1.msky130_fd_pr__nfet_g5v0d10v5#dbody = 3.900226e-11
m.xm1.msky130_fd_pr__nfet_g5v0d10v5#sbody = 9.434533e-12
m.xm2.msky130_fd_pr__pfet_g5v0d10v5#body = 2.500000e+00
m.xm2.msky130_fd_pr__pfet_g5v0d10v5#dbody = 2.500000e+00
m.xm2.msky130_fd_pr__pfet_g5v0d10v5#sbody = 2.500000e+00
m.xm3.msky130_fd_pr__pfet_g5v0d10v5#body = 2.500000e+00
m.xm3.msky130_fd_pr__pfet_g5v0d10v5#dbody = 2.500000e+00
m.xm3.msky130_fd_pr__pfet_g5v0d10v5#sbody = 2.500000e+00
m.xm4.msky130_fd_pr__pfet_g5v0d10v5#body = 2.500000e+00
m.xm4.msky130_fd_pr__pfet_g5v0d10v5#dbody = 2.500000e+00
m.xm4.msky130_fd_pr__pfet_g5v0d10v5#sbody = 2.500000e+00
m.xm5.msky130_fd_pr__pfet_g5v0d10v5#body = 2.500000e+00
m.xm5.msky130_fd_pr__pfet_g5v0d10v5#dbody = 2.500000e+00
m.xm5.msky130_fd_pr__pfet_g5v0d10v5#sbody = 2.500000e+00
m.xm6.msky130_fd_pr__nfet_g5v0d10v5#body = 1.070663e-11
m.xm6.msky130_fd_pr__nfet_g5v0d10v5#dbody = 2.676656e-11
m.xm6.msky130_fd_pr__nfet_g5v0d10v5#sbody = 5.353316e-12
m.xm7.msky130_fd_pr__pfet_g5v0d10v5#body = 2.500000e+00
m.xm7.msky130_fd_pr__pfet_g5v0d10v5#dbody = 2.500000e+00
m.xm7.msky130_fd_pr__pfet_g5v0d10v5#sbody = 2.500000e+00
m.xm8.msky130_fd_pr__pfet_g5v0d10v5#body = 2.500000e+00
m.xm8.msky130_fd_pr__pfet_g5v0d10v5#dbody = 2.500000e+00
m.xm8.msky130_fd_pr__pfet_g5v0d10v5#sbody = 2.500000e+00
m.xm9.msky130_fd_pr__nfet_g5v0d10v5#body = 1.848123e-11
m.xm9.msky130_fd_pr__nfet_g5v0d10v5#dbody = 4.614568e-11
m.xm9.msky130_fd_pr__nfet_g5v0d10v5#sbody = 9.297233e-12
m.xm10.msky130_fd_pr__nfet_g5v0d10v5#body = 1.608104e-11
m.xm10.msky130_fd_pr__nfet_g5v0d10v5#dbody = 4.014597e-11
m.xm10.msky130_fd_pr__nfet_g5v0d10v5#sbody = 8.097141e-12
m.xm11.msky130_fd_pr__pfet_g5v0d10v5#body = 2.500000e+00
m.xm11.msky130_fd_pr__pfet_g5v0d10v5#dbody = 2.500000e+00
m.xm11.msky130_fd_pr__pfet_g5v0d10v5#sbody = 2.500000e+00
m.xm12.msky130_fd_pr__pfet_g5v0d10v5#body = 2.500000e+00
m.xm12.msky130_fd_pr__pfet_g5v0d10v5#dbody = 2.500000e+00
m.xm12.msky130_fd_pr__pfet_g5v0d10v5#sbody = 2.500000e+00
m.xm13.msky130_fd_pr__nfet_g5v0d10v5#body = 2.830812e-14
m.xm13.msky130_fd_pr__nfet_g5v0d10v5#dbody = 7.077013e-14
m.xm13.msky130_fd_pr__nfet_g5v0d10v5#sbody = 1.415423e-14
m.xm14.msky130_fd_pr__pfet_g5v0d10v5#body = 2.500000e+00
m.xm14.msky130_fd_pr__pfet_g5v0d10v5#dbody = 2.500000e+00
m.xm14.msky130_fd_pr__pfet_g5v0d10v5#sbody = 2.500000e+00
m.xm15.msky130_fd_pr__nfet_g5v0d10v5#body = 2.807211e-12
m.xm15.msky130_fd_pr__nfet_g5v0d10v5#dbody = 7.018028e-12
m.xm15.msky130_fd_pr__nfet_g5v0d10v5#sbody = 1.403606e-12
m.xm16.msky130_fd_pr__nfet_g5v0d10v5#body = 4.142869e-11
m.xm16.msky130_fd_pr__nfet_g5v0d10v5#dbody = 8.321446e-11
m.xm16.msky130_fd_pr__nfet_g5v0d10v5#sbody = 4.107161e-11
m.xm17.msky130_fd_pr__pfet_g5v0d10v5#body = 2.500000e+00
m.xm17.msky130_fd_pr__pfet_g5v0d10v5#dbody = 2.500000e+00
m.xm17.msky130_fd_pr__pfet_g5v0d10v5#sbody = 2.500000e+00
m.xm18.msky130_fd_pr__nfet_g5v0d10v5#body = 1.993289e-11
m.xm18.msky130_fd_pr__nfet_g5v0d10v5#dbody = 4.973013e-11
m.xm18.msky130_fd_pr__nfet_g5v0d10v5#sbody = 9.966450e-12
m.xm19.msky130_fd_pr__nfet_g5v0d10v5#body = 1.660492e-11
m.xm19.msky130_fd_pr__nfet_g5v0d10v5#dbody = 4.015048e-11
m.xm19.msky130_fd_pr__nfet_g5v0d10v5#sbody = 9.664187e-12
m.xm20.msky130_fd_pr__nfet_g5v0d10v5#body = 1.065601e-11
m.xm20.msky130_fd_pr__nfet_g5v0d10v5#dbody = 2.664003e-11
m.xm20.msky130_fd_pr__nfet_g5v0d10v5#sbody = 5.328013e-12
m.xm22.msky130_fd_pr__nfet_g5v0d10v5#body = 6.808964e-13
m.xm22.msky130_fd_pr__nfet_g5v0d10v5#dbody = 1.702240e-12
m.xm22.msky130_fd_pr__nfet_g5v0d10v5#sbody = 3.404496e-13
m.xm24.msky130_fd_pr__pfet_g5v0d10v5#body = 2.500000e+00
m.xm24.msky130_fd_pr__pfet_g5v0d10v5#dbody = 2.500000e+00
m.xm24.msky130_fd_pr__pfet_g5v0d10v5#sbody = 2.500000e+00
m.xm26.msky130_fd_pr__pfet_g5v0d10v5#body = 2.500000e+00
m.xm26.msky130_fd_pr__pfet_g5v0d10v5#dbody = 2.500000e+00
m.xm26.msky130_fd_pr__pfet_g5v0d10v5#sbody = 2.500000e+00
mir = 1.237174e+00
net1 = 5.951922e-01
net2 = 2.245619e-01
net3 = 5.955025e-01
net4 = 5.446496e-02
net5 = 1.273916e+00
net6 = 8.565225e-01
net7 = 5.952379e-01
net8 = 1.284215e+00
net9 = 1.476200e+00
net10 = 2.264501e-03
net11 = 1.590546e+00
net12 = 1.590546e+00
net13 = 0.000000e+00
out = 1.590546e+00
pos = 6.040194e-01
q.xq2.qsky130_fd_pr__pnp_05v5_w0p68l0p68#collcx = 1.831081e-07
q.xq3.qsky130_fd_pr__pnp_05v5_w0p68l0p68#collcx = 1.807879e-07
q.xq4.qsky130_fd_pr__pnp_05v5_w0p68l0p68#collcx = 1.807879e-07
q.xq8.qsky130_fd_pr__pnp_05v5_w0p68l0p68#collcx = 1.807879e-07
q.xq10.qsky130_fd_pr__pnp_05v5_w0p68l0p68#collcx = 1.807879e-07
q.xq12.qsky130_fd_pr__pnp_05v5_w0p68l0p68#collcx = 1.807879e-07
q.xq14.qsky130_fd_pr__pnp_05v5_w0p68l0p68#collcx = 1.807879e-07
q.xq16.qsky130_fd_pr__pnp_05v5_w0p68l0p68#collcx = 1.807879e-07
q.xq18.qsky130_fd_pr__pnp_05v5_w0p68l0p68#collcx = 1.807879e-07
vb = 8.524794e-01
vdd = 2.500000e+00
vs#branch = -7.80328e-05
vt#branch = 0.000000e+00
xc1.a = 0.000000e+00
xc1.b1 = 0.000000e+00
xc3.a = 1.590546e+00
xc3.b1 = 1.590546e+00
xr1.xsky130_fd_pr__res_xhigh_po_0p69.ra = 5.988184e-01
xr2.xsky130_fd_pr__res_xhigh_po_0p69.ra = 5.990830e-01
xr3.xsky130_fd_pr__res_xhigh_po_0p69.ra = 3.665727e-03
xr4.xsky130_fd_pr__res_xhigh_po_0p69.ra = 5.951941e-01
xr5.xsky130_fd_pr__res_xhigh_po_0p69.ra = 3.664021e-03
xr6.xsky130_fd_pr__res_xhigh_po_0p69.ra = 3.706722e-03
xr7.xsky130_fd_pr__res_xhigh_po_0p69.ra = 1.590546e+00
xr8.xsky130_fd_pr__res_xhigh_po_0p69.ra = 6.103818e-01
xr9.xsky130_fd_pr__res_xhigh_po_0p69.ra = 6.494035e-03
Doing analysis at TEMP = 0.000000 and TNOM = 27.000000


No. of Data Rows : 91
Error: -6.54052e+163, 2 out of range for ^
Error: -6.54052e+163, 2 out of range for ^
Note: Starting true gmin stepping
Trying gmin =   1.0000E-03 Note: One successful gmin step
Trying gmin =   1.0000E-04 Note: One successful gmin step
Trying gmin =   1.0000E-05 Note: One successful gmin step
Trying gmin =   1.0000E-06 Note: One successful gmin step
Trying gmin =   1.0000E-07 Note: One successful gmin step
Trying gmin =   1.0000E-08 Warning: Further gmin increment
Trying gmin =   5.6234E-08 Note: One successful gmin step
Trying gmin =   2.3714E-08 Note: One successful gmin step
Trying gmin =   6.4938E-09 Warning: Further gmin increment
Trying gmin =   1.7154E-08 Note: One successful gmin step
Trying gmin =   1.0554E-08 Note: One successful gmin step
Trying gmin =   5.0937E-09 Note: One successful gmin step
Trying gmin =   1.7077E-09 Note: One successful gmin step
Trying gmin =   3.3152E-10 Note: One successful gmin step
Trying gmin =   3.3152E-11 Note: One successful gmin step
Trying gmin =   3.3152E-12 Note: One successful gmin step
Trying gmin =   1.0000E-12 Note: One successful gmin step
Note: True gmin stepping completed
 Reference value :  1.42000e+00Note: Starting true gmin stepping
Trying gmin =   1.0000E-03 Note: One successful gmin step
Trying gmin =   1.0000E-04 Note: One successful gmin step
Trying gmin =   1.0000E-05 Note: One successful gmin step
Trying gmin =   1.0000E-06 Note: One successful gmin step
Trying gmin =   1.0000E-07 Note: One successful gmin step
Trying gmin =   1.0000E-08 Warning: Further gmin increment
Trying gmin =   5.6234E-08 Note: One successful gmin step
Trying gmin =   2.3714E-08 Note: One successful gmin step
Trying gmin =   6.4938E-09 Warning: Further gmin increment
Trying gmin =   1.7154E-08 Note: One successful gmin step
Trying gmin =   1.0554E-08 Note: One successful gmin step
Trying gmin =   5.0937E-09 Note: One successful gmin step
Trying gmin =   1.7077E-09 Note: One successful gmin step
Trying gmin =   3.3152E-10 Note: One successful gmin step
Trying gmin =   3.3152E-11 Note: One successful gmin step
Trying gmin =   3.3152E-12 Note: One successful gmin step
Trying gmin =   1.0000E-12 Note: One successful gmin step
Note: True gmin stepping completed
Note: Starting true gmin stepping
Trying gmin =   1.0000E-03 Note: One successful gmin step
Trying gmin =   1.0000E-04 Note: One successful gmin step
Trying gmin =   1.0000E-05 Note: One successful gmin step
Trying gmin =   1.0000E-06 Note: One successful gmin step
Trying gmin =   1.0000E-07 Note: One successful gmin step
Trying gmin =   1.0000E-08 Note: One successful gmin step
Trying gmin =   1.0000E-09 Note: One successful gmin step
Trying gmin =   1.0000E-10 Note: One successful gmin step
Trying gmin =   1.0000E-11 Note: One successful gmin step
Trying gmin =   1.0000E-12 Warning: Further gmin increment
Trying gmin =   5.6234E-12 Note: One successful gmin step
Trying gmin =   2.3714E-12 Note: One successful gmin step
Trying gmin =   1.0000E-12 Warning: Further gmin increment
Trying gmin =   1.9110E-12 Note: One successful gmin step
Trying gmin =   1.3824E-12 Note: One successful gmin step
Trying gmin =   1.0000E-12 Warning: Further gmin increment
Trying gmin =   1.2749E-12 Note: One successful gmin step
Trying gmin =   1.1291E-12 Note: One successful gmin step
Trying gmin =   1.0000E-12 Note: One successful gmin step
Warning: True gmin stepping failed
Note: Starting dynamic gmin stepping
Trying gmin =   1.0000E-03 Note: One successful gmin step
Trying gmin =   1.0000E-04 Note: One successful gmin step
Trying gmin =   1.0000E-05 Note: One successful gmin step
Trying gmin =   1.0000E-06 Note: One successful gmin step
Trying gmin =   1.0000E-07 Note: One successful gmin step
Trying gmin =   1.0000E-08 Note: One successful gmin step
Trying gmin =   1.0000E-09 Note: One successful gmin step
Trying gmin =   1.0000E-10 Note: One successful gmin step
Trying gmin =   1.0000E-11 Note: One successful gmin step
Trying gmin =   1.0000E-12 Note: One successful gmin step
Trying gmin =   1.0000E-12 Note: One successful gmin step
Note: Dynamic gmin stepping completed
 Reference value :  4.00000e-02pm                  =  7.434934e+01
Doing analysis at TEMP = 0.000000 and TNOM = 27.000000


No. of Data Rows : 91
psrr100             =  -3.584425e+01
psrr100k            =  -2.310453e+00
Doing analysis at TEMP = 0.000000 and TNOM = 27.000000


No. of Data Rows : 86
temp_coeff = 1.135631e+02
Doing analysis at TEMP = 0.000000 and TNOM = 27.000000


No. of Data Rows : 141
vldo_sup_2          =  2.130909e+00
vldo_sup_2_8        =  2.883308e+00
line_reg = 9.404988e-01
Note: No ".plot", ".print", or ".fourier" lines; no simulations run
vin                 =  1.562239e+00
dropout = -2.01761e-01
