 Reference value :  0.00000e+00
No compatibility mode selected!


Circuit: * ldo netlist 

Doing analysis at TEMP = 0.000000 and TNOM = 27.000000


No. of Data Rows : 1
bg_out = 6.041851e-01
inn = 8.171428e-01
inp = 8.168590e-01
l1#branch = 3.469447e-18
ldo_out = 9.114821e-01
m.xm1.msky130_fd_pr__nfet_g5v0d10v5#body = 1.364133e-11
m.xm1.msky130_fd_pr__nfet_g5v0d10v5#dbody = 3.271764e-11
m.xm1.msky130_fd_pr__nfet_g5v0d10v5#sbody = 8.206347e-12
m.xm2.msky130_fd_pr__pfet_g5v0d10v5#body = 2.300000e+00
m.xm2.msky130_fd_pr__pfet_g5v0d10v5#dbody = 2.300000e+00
m.xm2.msky130_fd_pr__pfet_g5v0d10v5#sbody = 2.300000e+00
m.xm3.msky130_fd_pr__pfet_g5v0d10v5#body = 2.300000e+00
m.xm3.msky130_fd_pr__pfet_g5v0d10v5#dbody = 2.300000e+00
m.xm3.msky130_fd_pr__pfet_g5v0d10v5#sbody = 2.300000e+00
m.xm4.msky130_fd_pr__pfet_g5v0d10v5#body = 2.300000e+00
m.xm4.msky130_fd_pr__pfet_g5v0d10v5#dbody = 2.300000e+00
m.xm4.msky130_fd_pr__pfet_g5v0d10v5#sbody = 2.300000e+00
m.xm5.msky130_fd_pr__pfet_g5v0d10v5#body = 2.300000e+00
m.xm5.msky130_fd_pr__pfet_g5v0d10v5#dbody = 2.300000e+00
m.xm5.msky130_fd_pr__pfet_g5v0d10v5#sbody = 2.300000e+00
m.xm6.msky130_fd_pr__nfet_g5v0d10v5#body = 1.070943e-11
m.xm6.msky130_fd_pr__nfet_g5v0d10v5#dbody = 2.677357e-11
m.xm6.msky130_fd_pr__nfet_g5v0d10v5#sbody = 5.354717e-12
m.xm7.msky130_fd_pr__pfet_g5v0d10v5#body = 2.300000e+00
m.xm7.msky130_fd_pr__pfet_g5v0d10v5#dbody = 2.300000e+00
m.xm7.msky130_fd_pr__pfet_g5v0d10v5#sbody = 2.300000e+00
m.xm8.msky130_fd_pr__pfet_g5v0d10v5#body = 2.300000e+00
m.xm8.msky130_fd_pr__pfet_g5v0d10v5#dbody = 2.300000e+00
m.xm8.msky130_fd_pr__pfet_g5v0d10v5#sbody = 2.300000e+00
m.xm9.msky130_fd_pr__nfet_g5v0d10v5#body = 1.596755e-11
m.xm9.msky130_fd_pr__nfet_g5v0d10v5#dbody = 3.986100e-11
m.xm9.msky130_fd_pr__nfet_g5v0d10v5#sbody = 8.041645e-12
m.xm10.msky130_fd_pr__nfet_g5v0d10v5#body = 1.366438e-11
m.xm10.msky130_fd_pr__nfet_g5v0d10v5#dbody = 3.410308e-11
m.xm10.msky130_fd_pr__nfet_g5v0d10v5#sbody = 6.890059e-12
m.xm11.msky130_fd_pr__pfet_g5v0d10v5#body = 2.300000e+00
m.xm11.msky130_fd_pr__pfet_g5v0d10v5#dbody = 2.300000e+00
m.xm11.msky130_fd_pr__pfet_g5v0d10v5#sbody = 2.300000e+00
m.xm12.msky130_fd_pr__pfet_g5v0d10v5#body = 2.300000e+00
m.xm12.msky130_fd_pr__pfet_g5v0d10v5#dbody = 2.300000e+00
m.xm12.msky130_fd_pr__pfet_g5v0d10v5#sbody = 2.300000e+00
m.xm13.msky130_fd_pr__nfet_g5v0d10v5#body = 2.893312e-14
m.xm13.msky130_fd_pr__nfet_g5v0d10v5#dbody = 7.233264e-14
m.xm13.msky130_fd_pr__nfet_g5v0d10v5#sbody = 1.446673e-14
m.xm14.msky130_fd_pr__pfet_g5v0d10v5#body = 2.300000e+00
m.xm14.msky130_fd_pr__pfet_g5v0d10v5#dbody = 2.300000e+00
m.xm14.msky130_fd_pr__pfet_g5v0d10v5#sbody = 2.300000e+00
m.xm15.msky130_fd_pr__nfet_g5v0d10v5#body = 6.484931e-13
m.xm15.msky130_fd_pr__nfet_g5v0d10v5#dbody = 1.621233e-12
m.xm15.msky130_fd_pr__nfet_g5v0d10v5#sbody = 3.242466e-13
m.xm16.msky130_fd_pr__nfet_g5v0d10v5#body = 3.896440e-11
m.xm16.msky130_fd_pr__nfet_g5v0d10v5#dbody = 7.698232e-11
m.xm16.msky130_fd_pr__nfet_g5v0d10v5#sbody = 3.991089e-11
m.xm17.msky130_fd_pr__pfet_g5v0d10v5#body = 2.300000e+00
m.xm17.msky130_fd_pr__pfet_g5v0d10v5#dbody = 2.300000e+00
m.xm17.msky130_fd_pr__pfet_g5v0d10v5#sbody = 2.300000e+00
m.xm18.msky130_fd_pr__nfet_g5v0d10v5#body = 1.088173e-11
m.xm18.msky130_fd_pr__nfet_g5v0d10v5#dbody = 2.720431e-11
m.xm18.msky130_fd_pr__nfet_g5v0d10v5#sbody = 5.440868e-12
m.xm19.msky130_fd_pr__nfet_g5v0d10v5#body = 1.410342e-11
m.xm19.msky130_fd_pr__nfet_g5v0d10v5#dbody = 3.387287e-11
m.xm19.msky130_fd_pr__nfet_g5v0d10v5#sbody = 8.437393e-12
m.xm20.msky130_fd_pr__nfet_g5v0d10v5#body = 1.065884e-11
m.xm20.msky130_fd_pr__nfet_g5v0d10v5#dbody = 2.664710e-11
m.xm20.msky130_fd_pr__nfet_g5v0d10v5#sbody = 5.329427e-12
m.xm22.msky130_fd_pr__nfet_g5v0d10v5#body = 6.928734e-13
m.xm22.msky130_fd_pr__nfet_g5v0d10v5#dbody = 1.732182e-12
m.xm22.msky130_fd_pr__nfet_g5v0d10v5#sbody = 3.464381e-13
m.xm24.msky130_fd_pr__pfet_g5v0d10v5#body = 2.300000e+00
m.xm24.msky130_fd_pr__pfet_g5v0d10v5#dbody = 2.300000e+00
m.xm24.msky130_fd_pr__pfet_g5v0d10v5#sbody = 2.300000e+00
m.xm26.msky130_fd_pr__pfet_g5v0d10v5#body = 2.300000e+00
m.xm26.msky130_fd_pr__pfet_g5v0d10v5#dbody = 2.300000e+00
m.xm26.msky130_fd_pr__pfet_g5v0d10v5#sbody = 2.300000e+00
mir = 1.035874e+00
net1 = 5.972540e-01
net2 = 5.186636e-02
net3 = 5.975908e-01
net4 = 5.542309e-02
net5 = 1.072842e+00
net6 = 8.567467e-01
net7 = 5.973037e-01
net8 = 1.090832e+00
net9 = 1.275086e+00
net10 = 2.314498e-03
net11 = 8.705362e-01
net12 = 8.705362e-01
net13 = 0.000000e+00
out = 8.705362e-01
pos = 6.063516e-01
q.xq2.qsky130_fd_pr__pnp_05v5_w0p68l0p68#collcx = 1.995146e-07
q.xq3.qsky130_fd_pr__pnp_05v5_w0p68l0p68#collcx = 1.967728e-07
q.xq4.qsky130_fd_pr__pnp_05v5_w0p68l0p68#collcx = 1.967728e-07
q.xq8.qsky130_fd_pr__pnp_05v5_w0p68l0p68#collcx = 1.967728e-07
q.xq10.qsky130_fd_pr__pnp_05v5_w0p68l0p68#collcx = 1.967728e-07
q.xq12.qsky130_fd_pr__pnp_05v5_w0p68l0p68#collcx = 1.967728e-07
q.xq14.qsky130_fd_pr__pnp_05v5_w0p68l0p68#collcx = 1.967728e-07
q.xq16.qsky130_fd_pr__pnp_05v5_w0p68l0p68#collcx = 1.967728e-07
q.xq18.qsky130_fd_pr__pnp_05v5_w0p68l0p68#collcx = 1.967728e-07
vb = 8.527056e-01
vdd = 2.300000e+00
vs#branch = -5.06897e-02
vt#branch = 0.000000e+00
xc1.a = 0.000000e+00
xc1.b1 = 0.000000e+00
xc3.a = 8.705362e-01
xc3.b1 = 8.705362e-01
xr1.xsky130_fd_pr__res_xhigh_po_0p69.ra = 6.008969e-01
xr2.xsky130_fd_pr__res_xhigh_po_0p69.ra = 6.011839e-01
xr3.xsky130_fd_pr__res_xhigh_po_0p69.ra = 3.679192e-03
xr4.xsky130_fd_pr__res_xhigh_po_0p69.ra = 5.972561e-01
xr5.xsky130_fd_pr__res_xhigh_po_0p69.ra = 3.677340e-03
xr6.xsky130_fd_pr__res_xhigh_po_0p69.ra = 3.721743e-03
xr7.xsky130_fd_pr__res_xhigh_po_0p69.ra = 8.705362e-01
xr8.xsky130_fd_pr__res_xhigh_po_0p69.ra = 6.127390e-01
xr9.xsky130_fd_pr__res_xhigh_po_0p69.ra = 6.520316e-03
Doing analysis at TEMP = 0.000000 and TNOM = 27.000000


No. of Data Rows : 91
Note: Starting true gmin stepping
Trying gmin =   1.0000E-03 Note: One successful gmin step
Trying gmin =   1.0000E-04 Note: One successful gmin step
Trying gmin =   1.0000E-05 Note: One successful gmin step
Trying gmin =   1.0000E-06 Note: One successful gmin step
Trying gmin =   1.0000E-07 Note: One successful gmin step
Trying gmin =   1.0000E-08 Warning: Further gmin increment
Trying gmin =   5.6234E-08 Note: One successful gmin step
Trying gmin =   2.3714E-08 Note: One successful gmin step
Trying gmin =   6.4938E-09 Warning: Further gmin increment
Trying gmin =   1.7154E-08 Warning: Further gmin increment
Trying gmin =   2.1870E-08 Note: One successful gmin step
Trying gmin =   1.9369E-08 Note: One successful gmin step
Trying gmin =   1.6144E-08 Warning: Further gmin increment
Trying gmin =   1.8507E-08 Warning: Further gmin increment
Trying gmin =   1.9150E-08 Warning: Further gmin increment
Trying gmin =   1.9314E-08 Note: One successful gmin step
Trying gmin =   1.9232E-08 Note: One successful gmin step
Trying gmin =   1.9109E-08 Warning: Further gmin increment
Trying gmin =   1.9201E-08 Note: One successful gmin step
Trying gmin =   1.9155E-08 Warning: Further gmin increment
Trying gmin =   1.9189E-08 Warning: Further gmin increment
Trying gmin =   1.9198E-08 Note: One successful gmin step
Trying gmin =   1.9194E-08 Note: One successful gmin step
Trying gmin =   1.9187E-08 Warning: Further gmin increment
Trying gmin =   1.9192E-08 Note: One successful gmin step
Trying gmin =   1.9190E-08 Warning: Further gmin increment
Trying gmin =   1.9192E-08 Warning: Last gmin step failed
Warning: True gmin stepping failed
Note: Starting dynamic gmin stepping
Trying gmin =   1.0000E-03 Note: One successful gmin step
Trying gmin =   1.0000E-04 Note: One successful gmin step
Trying gmin =   1.0000E-05 Note: One successful gmin step
Trying gmin =   1.0000E-06 Warning: Further gmin increment
Trying gmin =   5.6234E-06 Note: One successful gmin step
Trying gmin =   2.3714E-06 Note: One successful gmin step
Trying gmin =   1.5399E-06 Note: One successful gmin step
Trying gmin =   8.0584E-07 Note: One successful gmin step
Trying gmin =   3.0505E-07 Note: One successful gmin step
Trying gmin =   7.1050E-08 Warning: Further gmin increment
Trying gmin =   2.1192E-07 Note: One successful gmin step
Trying gmin =   1.2271E-07 Note: One successful gmin step
Trying gmin =   5.4064E-08 Warning: Further gmin increment
Trying gmin =   9.9972E-08 Note: One successful gmin step
Trying gmin =   7.3518E-08 Warning: Further gmin increment
Trying gmin =   9.2578E-08 Note: One successful gmin step
Trying gmin =   8.2499E-08 Warning: Further gmin increment
Trying gmin =   8.9948E-08 Note: One successful gmin step
Trying gmin =   8.6143E-08 Warning: Further gmin increment
Trying gmin =   8.8982E-08 Note: One successful gmin step
Trying gmin =   8.7551E-08 Warning: Further gmin increment
Trying gmin =   8.8622E-08 Note: One successful gmin step
Trying gmin =   8.8085E-08 Warning: Further gmin increment
Trying gmin =   8.8487E-08 Note: One successful gmin step
Trying gmin =   8.8286E-08 Note: One successful gmin step
Trying gmin =   8.7984E-08 Warning: Further gmin increment
Trying gmin =   8.8210E-08 Warning: Further gmin increment
Trying gmin =   8.8267E-08 Note: One successful gmin step
Trying gmin =   8.8239E-08 Warning: Further gmin increment
Trying gmin =   8.8260E-08 Note: One successful gmin step
Trying gmin =   8.8249E-08 Warning: Further gmin increment
Trying gmin =   8.8257E-08 Note: One successful gmin step
Trying gmin =   8.8253E-08 Note: One successful gmin step
Trying gmin =   8.8247E-08 Warning: Further gmin increment
Trying gmin =   8.8252E-08 Note: One successful gmin step
Trying gmin =   8.8249E-08 Warning: Last gmin step failed
Warning: Dynamic gmin stepping failed
Note: Starting source stepping
Supplies reduced to   0.0000% Note: One successful source step
Supplies reduced to   0.1000% Note: One successful source step
Supplies reduced to   0.2000% Note: One successful source step
Supplies reduced to   0.3500% Note: One successful source step
Supplies reduced to   0.5750% Note: One successful source step
Supplies reduced to   0.9125% Note: One successful source step
Supplies reduced to   1.4188% Note: One successful source step
Supplies reduced to   2.1781% Note: One successful source step
Supplies reduced to   3.3172% Note: One successful source step
Supplies reduced to   5.0258% Note: One successful source step
Supplies reduced to   7.5887% Note: One successful source step
Supplies reduced to  11.4330% Note: One successful source step
Supplies reduced to  17.1995% Note: One successful source step
Supplies reduced to  25.8493% Note: One successful source step
Supplies reduced to  38.8239% Supplies reduced to  25.8493% Note: One successful source step
Supplies reduced to  26.8493% Note: One successful source step
Supplies reduced to  28.3493% Note: One successful source step
Supplies reduced to  30.5993% Note: One successful source step
Supplies reduced to  33.9743% Note: One successful source step
Supplies reduced to  39.0368% Note: One successful source step
Supplies reduced to  46.6305% Supplies reduced to  39.0368% Note: One successful source step
Supplies reduced to  40.0368% Note: One successful source step
Supplies reduced to  41.5368% Note: One successful source step
Supplies reduced to  43.7868% Note: One successful source step
Supplies reduced to  46.0368% Note: One successful source step
Supplies reduced to  49.4118% Supplies reduced to  46.0368% Note: One successful source step
Supplies reduced to  46.5430% Note: One successful source step
Supplies reduced to  47.3024% Note: One successful source step
Supplies reduced to  48.4415% Supplies reduced to  47.3024% Note: One successful source step
Supplies reduced to  47.4733% Note: One successful source step
Supplies reduced to  47.7295% Note: One successful source step
Supplies reduced to  48.1140% Note: One successful source step
Supplies reduced to  48.6906% Note: One successful source step
Supplies reduced to  49.2673% Note: One successful source step
Supplies reduced to  50.1323% Note: One successful source step
Supplies reduced to  51.4297% Note: One successful source step
Supplies reduced to  53.3759% Note: One successful source step
Supplies reduced to  56.2952% Note: One successful source step
Supplies reduced to  60.6741% Note: One successful source step
Supplies reduced to  67.2425% Note: One successful source step
Supplies reduced to  77.0952% Note: One successful source step
Supplies reduced to  91.8741% Note: One successful source step
Supplies reduced to 100.0000% Note: One successful source step
Note: Source stepping completed
 Reference value :  2.80000e+00pm                  =  9.128076e+01
Doing analysis at TEMP = 0.000000 and TNOM = 27.000000


No. of Data Rows : 91
psrr100             =  -3.386911e+01
psrr100k            =  -3.028594e+00
Doing analysis at TEMP = 0.000000 and TNOM = 27.000000


No. of Data Rows : 86
temp_coeff = 1.014283e+02
Doing analysis at TEMP = 0.000000 and TNOM = 27.000000


No. of Data Rows : 141
vldo_sup_2          =  7.579522e-01
vldo_sup_2_8        =  8.796578e-01
line_reg = 1.521320e-01
Error(parse.c--checkvalid): vin: zero length vector.
Error: RHS "vin-1.764" invalid
Error(parse.c--checkvalid): dropout: zero length vector.
Error: no such vector dropout
Note: No ".plot", ".print", or ".fourier" lines; no simulations run

Error: measure  vin  (WHEN) : out of interval
 meas dc vin when v(ldo_out)=1.764 failed!

