 Reference value :  0.00000e+00
No compatibility mode selected!


Circuit: * ldo netlist 

Doing analysis at TEMP = 27.000000 and TNOM = 27.000000


No. of Data Rows : 1
bg_out = 1.098973e+00
inn = 1.144346e+00
inp = 1.144311e+00
l1#branch = 0.000000e+00
ldo_out = 1.806944e+00
m.xm1.msky130_fd_pr__nfet_g5v0d10v5#body = 1.879825e-11
m.xm1.msky130_fd_pr__nfet_g5v0d10v5#dbody = 4.128057e-11
m.xm1.msky130_fd_pr__nfet_g5v0d10v5#sbody = 1.511418e-11
m.xm2.msky130_fd_pr__pfet_g5v0d10v5#body = 2.500000e+00
m.xm2.msky130_fd_pr__pfet_g5v0d10v5#dbody = 2.500000e+00
m.xm2.msky130_fd_pr__pfet_g5v0d10v5#sbody = 2.500000e+00
m.xm3.msky130_fd_pr__pfet_g5v0d10v5#body = 2.500000e+00
m.xm3.msky130_fd_pr__pfet_g5v0d10v5#dbody = 2.500000e+00
m.xm3.msky130_fd_pr__pfet_g5v0d10v5#sbody = 2.500000e+00
m.xm4.msky130_fd_pr__pfet_g5v0d10v5#body = 2.500000e+00
m.xm4.msky130_fd_pr__pfet_g5v0d10v5#dbody = 2.500000e+00
m.xm4.msky130_fd_pr__pfet_g5v0d10v5#sbody = 2.500000e+00
m.xm5.msky130_fd_pr__pfet_g5v0d10v5#body = 2.500000e+00
m.xm5.msky130_fd_pr__pfet_g5v0d10v5#dbody = 2.500000e+00
m.xm5.msky130_fd_pr__pfet_g5v0d10v5#sbody = 2.500000e+00
m.xm6.msky130_fd_pr__nfet_g5v0d10v5#body = 1.184296e-11
m.xm6.msky130_fd_pr__nfet_g5v0d10v5#dbody = 2.960739e-11
m.xm6.msky130_fd_pr__nfet_g5v0d10v5#sbody = 5.921485e-12
m.xm7.msky130_fd_pr__pfet_g5v0d10v5#body = 2.500000e+00
m.xm7.msky130_fd_pr__pfet_g5v0d10v5#dbody = 2.500000e+00
m.xm7.msky130_fd_pr__pfet_g5v0d10v5#sbody = 2.500000e+00
m.xm8.msky130_fd_pr__pfet_g5v0d10v5#body = 2.500000e+00
m.xm8.msky130_fd_pr__pfet_g5v0d10v5#dbody = 2.500000e+00
m.xm8.msky130_fd_pr__pfet_g5v0d10v5#sbody = 2.500000e+00
m.xm9.msky130_fd_pr__nfet_g5v0d10v5#body = 1.943004e-11
m.xm9.msky130_fd_pr__nfet_g5v0d10v5#dbody = 4.399207e-11
m.xm9.msky130_fd_pr__nfet_g5v0d10v5#sbody = 1.429802e-11
m.xm10.msky130_fd_pr__nfet_g5v0d10v5#body = 1.911237e-11
m.xm10.msky130_fd_pr__nfet_g5v0d10v5#dbody = 4.319792e-11
m.xm10.msky130_fd_pr__nfet_g5v0d10v5#sbody = 1.413918e-11
m.xm11.msky130_fd_pr__pfet_g5v0d10v5#body = 2.500000e+00
m.xm11.msky130_fd_pr__pfet_g5v0d10v5#dbody = 2.500000e+00
m.xm11.msky130_fd_pr__pfet_g5v0d10v5#sbody = 2.500000e+00
m.xm12.msky130_fd_pr__pfet_g5v0d10v5#body = 2.500000e+00
m.xm12.msky130_fd_pr__pfet_g5v0d10v5#dbody = 2.500000e+00
m.xm12.msky130_fd_pr__pfet_g5v0d10v5#sbody = 2.500000e+00
m.xm13.msky130_fd_pr__nfet_g5v0d10v5#body = 2.290142e-12
m.xm13.msky130_fd_pr__nfet_g5v0d10v5#dbody = 5.725345e-12
m.xm13.msky130_fd_pr__nfet_g5v0d10v5#sbody = 1.145082e-12
m.xm14.msky130_fd_pr__pfet_g5v0d10v5#body = 2.500000e+00
m.xm14.msky130_fd_pr__pfet_g5v0d10v5#dbody = 2.500000e+00
m.xm14.msky130_fd_pr__pfet_g5v0d10v5#sbody = 2.500000e+00
m.xm15.msky130_fd_pr__nfet_g5v0d10v5#body = 1.300272e-15
m.xm15.msky130_fd_pr__nfet_g5v0d10v5#dbody = 3.250616e-15
m.xm15.msky130_fd_pr__nfet_g5v0d10v5#sbody = 6.501998e-16
m.xm16.msky130_fd_pr__nfet_g5v0d10v5#body = 4.556301e-11
m.xm16.msky130_fd_pr__nfet_g5v0d10v5#dbody = 8.529020e-11
m.xm16.msky130_fd_pr__nfet_g5v0d10v5#sbody = 5.139884e-11
m.xm17.msky130_fd_pr__pfet_g5v0d10v5#body = 2.500000e+00
m.xm17.msky130_fd_pr__pfet_g5v0d10v5#dbody = 2.500000e+00
m.xm17.msky130_fd_pr__pfet_g5v0d10v5#sbody = 2.500000e+00
m.xm18.msky130_fd_pr__nfet_g5v0d10v5#body = 2.181824e-11
m.xm18.msky130_fd_pr__nfet_g5v0d10v5#dbody = 5.376585e-11
m.xm18.msky130_fd_pr__nfet_g5v0d10v5#sbody = 1.090913e-11
m.xm19.msky130_fd_pr__nfet_g5v0d10v5#body = 1.885918e-11
m.xm19.msky130_fd_pr__nfet_g5v0d10v5#dbody = 4.143290e-11
m.xm19.msky130_fd_pr__nfet_g5v0d10v5#sbody = 1.514465e-11
m.xm20.msky130_fd_pr__nfet_g5v0d10v5#body = 1.211874e-11
m.xm20.msky130_fd_pr__nfet_g5v0d10v5#dbody = 3.029683e-11
m.xm20.msky130_fd_pr__nfet_g5v0d10v5#sbody = 6.059383e-12
m.xm22.msky130_fd_pr__nfet_g5v0d10v5#body = 2.860240e-12
m.xm22.msky130_fd_pr__nfet_g5v0d10v5#dbody = 7.150594e-12
m.xm22.msky130_fd_pr__nfet_g5v0d10v5#sbody = 1.430125e-12
m.xm24.msky130_fd_pr__pfet_g5v0d10v5#body = 2.500000e+00
m.xm24.msky130_fd_pr__pfet_g5v0d10v5#dbody = 2.500000e+00
m.xm24.msky130_fd_pr__pfet_g5v0d10v5#sbody = 2.500000e+00
m.xm26.msky130_fd_pr__pfet_g5v0d10v5#body = 2.500000e+00
m.xm26.msky130_fd_pr__pfet_g5v0d10v5#dbody = 2.500000e+00
m.xm26.msky130_fd_pr__pfet_g5v0d10v5#sbody = 2.500000e+00
mir = 1.274910e+00
net1 = 7.274544e-01
net2 = 1.000520e-04
net3 = 7.873186e-01
net4 = 2.282546e-01
net5 = 1.279785e+00
net6 = 9.468719e-01
net7 = 7.872834e-01
net8 = 1.345430e+00
net9 = 1.370843e+00
net10 = 1.830810e-01
net11 = 1.714139e+00
net12 = 1.714139e+00
net13 = 0.000000e+00
out = 1.714139e+00
pos = 1.099198e+00
q.xq2.qsky130_fd_pr__pnp_05v5_w0p68l0p68#collcx = 2.277331e-03
q.xq3.qsky130_fd_pr__pnp_05v5_w0p68l0p68#collcx = 2.870036e-04
q.xq4.qsky130_fd_pr__pnp_05v5_w0p68l0p68#collcx = 2.870036e-04
q.xq8.qsky130_fd_pr__pnp_05v5_w0p68l0p68#collcx = 2.870036e-04
q.xq10.qsky130_fd_pr__pnp_05v5_w0p68l0p68#collcx = 2.870036e-04
q.xq12.qsky130_fd_pr__pnp_05v5_w0p68l0p68#collcx = 2.870036e-04
q.xq14.qsky130_fd_pr__pnp_05v5_w0p68l0p68#collcx = 2.870036e-04
q.xq16.qsky130_fd_pr__pnp_05v5_w0p68l0p68#collcx = 2.870036e-04
q.xq18.qsky130_fd_pr__pnp_05v5_w0p68l0p68#collcx = 2.870036e-04
vb = 9.693685e-01
vdd = 2.500000e+00
vs#branch = -1.83722e-04
vt#branch = 0.000000e+00
xc1.a = 0.000000e+00
xc1.b1 = 0.000000e+00
xc3.a = 1.714139e+00
xc3.b1 = 1.714139e+00
xr1.xsky130_fd_pr__res_xhigh_po_0p69.ra = 7.902660e-01
xr2.xsky130_fd_pr__res_xhigh_po_0p69.ra = 7.903011e-01
xr3.xsky130_fd_pr__res_xhigh_po_0p69.ra = 2.064423e-03
xr4.xsky130_fd_pr__res_xhigh_po_0p69.ra = 7.284291e-01
xr5.xsky130_fd_pr__res_xhigh_po_0p69.ra = 2.064325e-03
xr6.xsky130_fd_pr__res_xhigh_po_0p69.ra = 3.165780e-03
xr7.xsky130_fd_pr__res_xhigh_po_0p69.ra = 1.714139e+00
xr8.xsky130_fd_pr__res_xhigh_po_0p69.ra = 1.104007e+00
xr9.xsky130_fd_pr__res_xhigh_po_0p69.ra = 4.963673e-03
Doing analysis at TEMP = 27.000000 and TNOM = 27.000000


No. of Data Rows : 91
Note: Starting true gmin stepping
Trying gmin =   1.0000E-03 Note: One successful gmin step
Trying gmin =   1.0000E-04 Note: One successful gmin step
Trying gmin =   1.0000E-05 Note: One successful gmin step
Trying gmin =   1.0000E-06 Note: One successful gmin step
Trying gmin =   1.0000E-07 Note: One successful gmin step
Trying gmin =   1.0000E-08 Warning: Further gmin increment
Trying gmin =   5.6234E-08 Warning: Further gmin increment
Trying gmin =   8.6596E-08 Note: One successful gmin step
Trying gmin =   6.9783E-08 Warning: Further gmin increment
Trying gmin =   8.2047E-08 Note: One successful gmin step
Trying gmin =   7.5667E-08 Warning: Further gmin increment
Trying gmin =   8.0403E-08 Note: One successful gmin step
Trying gmin =   7.7999E-08 Note: One successful gmin step
Trying gmin =   7.4527E-08 Warning: Further gmin increment
Trying gmin =   7.7116E-08 Note: One successful gmin step
Trying gmin =   7.5811E-08 Note: One successful gmin step
Trying gmin =   7.4527E-08 Note: One successful gmin step
Trying gmin =   7.2643E-08 Note: One successful gmin step
Trying gmin =   6.9905E-08 Note: One successful gmin step
Trying gmin =   6.5990E-08 Note: One successful gmin step
Trying gmin =   6.0525E-08 Note: One successful gmin step
Trying gmin =   5.3164E-08 Note: One successful gmin step
Trying gmin =   4.3767E-08 Note: One successful gmin step
Trying gmin =   3.2692E-08 Note: One successful gmin step
Trying gmin =   2.1105E-08 Note: One successful gmin step
Trying gmin =   1.0947E-08 Note: One successful gmin step
Trying gmin =   4.0895E-09 Note: One successful gmin step
Trying gmin =   9.3373E-10 Note: One successful gmin step
Trying gmin =   1.0187E-10 Note: One successful gmin step
Trying gmin =   1.0187E-11 Note: One successful gmin step
Trying gmin =   1.0187E-12 Note: One successful gmin step
Trying gmin =   1.0000E-12 Note: One successful gmin step
Note: True gmin stepping completed
 Reference value :  2.80000e+00Note: Starting true gmin stepping
Trying gmin =   1.0000E-03 Note: One successful gmin step
Trying gmin =   1.0000E-04 Note: One successful gmin step
Trying gmin =   1.0000E-05 Note: One successful gmin step
Trying gmin =   1.0000E-06 Note: One successful gmin step
Trying gmin =   1.0000E-07 Note: One successful gmin step
Trying gmin =   1.0000E-08 Warning: Further gmin increment
Trying gmin =   5.6234E-08 Note: One successful gmin step
Trying gmin =   2.3714E-08 Note: One successful gmin step
Trying gmin =   6.4938E-09 Note: One successful gmin step
Trying gmin =   9.3057E-10 Warning: Further gmin increment
Trying gmin =   3.9954E-09 Note: One successful gmin step
Trying gmin =   1.9282E-09 Note: One successful gmin step
Trying gmin =   6.4647E-10 Note: One successful gmin step
Trying gmin =   1.2550E-10 Note: One successful gmin step
Trying gmin =   1.2550E-11 Note: One successful gmin step
Trying gmin =   1.2550E-12 Note: One successful gmin step
Trying gmin =   1.0000E-12 Note: One successful gmin step
Note: True gmin stepping completed
Note: Starting true gmin stepping
Trying gmin =   1.0000E-03 Note: One successful gmin step
Trying gmin =   1.0000E-04 Note: One successful gmin step
Trying gmin =   1.0000E-05 Note: One successful gmin step
Trying gmin =   1.0000E-06 Note: One successful gmin step
Trying gmin =   1.0000E-07 Note: One successful gmin step
Trying gmin =   1.0000E-08 Warning: Further gmin increment
Trying gmin =   5.6234E-08 Note: One successful gmin step
Trying gmin =   2.3714E-08 Note: One successful gmin step
Trying gmin =   6.4938E-09 Note: One successful gmin step
Trying gmin =   9.3057E-10 Warning: Further gmin increment
Trying gmin =   3.9954E-09 Note: One successful gmin step
Trying gmin =   1.9282E-09 Note: One successful gmin step
Trying gmin =   6.4647E-10 Warning: Further gmin increment
Trying gmin =   1.4672E-09 Warning: Further gmin increment
Trying gmin =   1.8009E-09 Note: One successful gmin step
Trying gmin =   1.6255E-09 Warning: Further gmin increment
Trying gmin =   1.7554E-09 Note: One successful gmin step
Trying gmin =   1.6892E-09 Note: One successful gmin step
Trying gmin =   1.5946E-09 Note: One successful gmin step
Trying gmin =   1.4626E-09 Note: One successful gmin step
Trying gmin =   1.2847E-09 Note: One successful gmin step
Trying gmin =   1.0576E-09 Note: One successful gmin step
Trying gmin =   7.8999E-10 Note: One successful gmin step
Trying gmin =   5.1000E-10 Note: One successful gmin step
Trying gmin =   2.6453E-10 Note: One successful gmin step
Trying gmin =   9.8821E-11 Note: One successful gmin step
Trying gmin =   2.2563E-11 Note: One successful gmin step
Trying gmin =   2.4617E-12 Note: One successful gmin step
Trying gmin =   1.0000E-12 Note: One successful gmin step
Note: True gmin stepping completed
 Reference value :  1.30000e+00pm                  =  6.362207e+01
Doing analysis at TEMP = 27.000000 and TNOM = 27.000000


No. of Data Rows : 91
psrr100             =  -7.419220e+01
psrr100k            =  -2.831043e+01
Doing analysis at TEMP = 27.000000 and TNOM = 27.000000


No. of Data Rows : 86
temp_coeff = 7.227216e+01
Doing analysis at TEMP = 27.000000 and TNOM = 27.000000


No. of Data Rows : 141
vldo_sup_2          =  1.807038e+00
vldo_sup_2_8        =  1.806899e+00
line_reg = 1.737500e-04
Note: No ".plot", ".print", or ".fourier" lines; no simulations run
vin                 =  1.764125e+00
dropout = 1.250000e-04
