 Reference value :  0.00000e+00
No compatibility mode selected!


Circuit: * ldo netlist 

Doing analysis at TEMP = 85.000000 and TNOM = 27.000000


No. of Data Rows : 1
bg_out = 1.200258e+00
inn = 1.150884e+00
inp = 1.150800e+00
l1#branch = 0.000000e+00
ldo_out = 1.805549e+00
m.xm1.msky130_fd_pr__nfet_g5v0d10v5#body = 2.474448e-11
m.xm1.msky130_fd_pr__nfet_g5v0d10v5#dbody = 4.505486e-11
m.xm1.msky130_fd_pr__nfet_g5v0d10v5#sbody = 2.917859e-11
m.xm2.msky130_fd_pr__pfet_g5v0d10v5#body = 2.100000e+00
m.xm2.msky130_fd_pr__pfet_g5v0d10v5#dbody = 2.100000e+00
m.xm2.msky130_fd_pr__pfet_g5v0d10v5#sbody = 2.100000e+00
m.xm3.msky130_fd_pr__pfet_g5v0d10v5#body = 2.100000e+00
m.xm3.msky130_fd_pr__pfet_g5v0d10v5#dbody = 2.100000e+00
m.xm3.msky130_fd_pr__pfet_g5v0d10v5#sbody = 2.100000e+00
m.xm4.msky130_fd_pr__pfet_g5v0d10v5#body = 2.100000e+00
m.xm4.msky130_fd_pr__pfet_g5v0d10v5#dbody = 2.100000e+00
m.xm4.msky130_fd_pr__pfet_g5v0d10v5#sbody = 2.100000e+00
m.xm5.msky130_fd_pr__pfet_g5v0d10v5#body = 2.100000e+00
m.xm5.msky130_fd_pr__pfet_g5v0d10v5#dbody = 2.100000e+00
m.xm5.msky130_fd_pr__pfet_g5v0d10v5#sbody = 2.100000e+00
m.xm6.msky130_fd_pr__nfet_g5v0d10v5#body = 2.025051e-11
m.xm6.msky130_fd_pr__nfet_g5v0d10v5#dbody = 5.062616e-11
m.xm6.msky130_fd_pr__nfet_g5v0d10v5#sbody = 1.012536e-11
m.xm7.msky130_fd_pr__pfet_g5v0d10v5#body = 2.100000e+00
m.xm7.msky130_fd_pr__pfet_g5v0d10v5#dbody = 2.100000e+00
m.xm7.msky130_fd_pr__pfet_g5v0d10v5#sbody = 2.100000e+00
m.xm8.msky130_fd_pr__pfet_g5v0d10v5#body = 2.100000e+00
m.xm8.msky130_fd_pr__pfet_g5v0d10v5#dbody = 2.100000e+00
m.xm8.msky130_fd_pr__pfet_g5v0d10v5#sbody = 2.100000e+00
m.xm9.msky130_fd_pr__nfet_g5v0d10v5#body = 2.295419e-11
m.xm9.msky130_fd_pr__nfet_g5v0d10v5#dbody = 4.345170e-11
m.xm9.msky130_fd_pr__nfet_g5v0d10v5#sbody = 2.541086e-11
m.xm10.msky130_fd_pr__nfet_g5v0d10v5#body = 2.270404e-11
m.xm10.msky130_fd_pr__nfet_g5v0d10v5#dbody = 4.282633e-11
m.xm10.msky130_fd_pr__nfet_g5v0d10v5#sbody = 2.528578e-11
m.xm11.msky130_fd_pr__pfet_g5v0d10v5#body = 2.100000e+00
m.xm11.msky130_fd_pr__pfet_g5v0d10v5#dbody = 2.100000e+00
m.xm11.msky130_fd_pr__pfet_g5v0d10v5#sbody = 2.100000e+00
m.xm12.msky130_fd_pr__pfet_g5v0d10v5#body = 2.100000e+00
m.xm12.msky130_fd_pr__pfet_g5v0d10v5#dbody = 2.100000e+00
m.xm12.msky130_fd_pr__pfet_g5v0d10v5#sbody = 2.100000e+00
m.xm13.msky130_fd_pr__nfet_g5v0d10v5#body = 5.319703e-12
m.xm13.msky130_fd_pr__nfet_g5v0d10v5#dbody = 1.329919e-11
m.xm13.msky130_fd_pr__nfet_g5v0d10v5#sbody = 2.659916e-12
m.xm14.msky130_fd_pr__pfet_g5v0d10v5#body = 2.100000e+00
m.xm14.msky130_fd_pr__pfet_g5v0d10v5#dbody = 2.100000e+00
m.xm14.msky130_fd_pr__pfet_g5v0d10v5#sbody = 2.100000e+00
m.xm15.msky130_fd_pr__nfet_g5v0d10v5#body = 1.242728e-15
m.xm15.msky130_fd_pr__nfet_g5v0d10v5#dbody = 3.106764e-15
m.xm15.msky130_fd_pr__nfet_g5v0d10v5#sbody = 6.214204e-16
m.xm16.msky130_fd_pr__nfet_g5v0d10v5#body = 5.124238e-11
m.xm16.msky130_fd_pr__nfet_g5v0d10v5#dbody = 8.872752e-11
m.xm16.msky130_fd_pr__nfet_g5v0d10v5#sbody = 6.499962e-11
m.xm17.msky130_fd_pr__pfet_g5v0d10v5#body = 2.100000e+00
m.xm17.msky130_fd_pr__pfet_g5v0d10v5#dbody = 2.100000e+00
m.xm17.msky130_fd_pr__pfet_g5v0d10v5#sbody = 2.100000e+00
m.xm18.msky130_fd_pr__nfet_g5v0d10v5#body = 1.890394e-11
m.xm18.msky130_fd_pr__nfet_g5v0d10v5#dbody = 4.725947e-11
m.xm18.msky130_fd_pr__nfet_g5v0d10v5#sbody = 9.452042e-12
m.xm19.msky130_fd_pr__nfet_g5v0d10v5#body = 2.484138e-11
m.xm19.msky130_fd_pr__nfet_g5v0d10v5#dbody = 4.529711e-11
m.xm19.msky130_fd_pr__nfet_g5v0d10v5#sbody = 2.922704e-11
m.xm20.msky130_fd_pr__nfet_g5v0d10v5#body = 1.424677e-11
m.xm20.msky130_fd_pr__nfet_g5v0d10v5#dbody = 3.561684e-11
m.xm20.msky130_fd_pr__nfet_g5v0d10v5#sbody = 7.123456e-12
m.xm22.msky130_fd_pr__nfet_g5v0d10v5#body = 1.169688e-11
m.xm22.msky130_fd_pr__nfet_g5v0d10v5#dbody = 2.924210e-11
m.xm22.msky130_fd_pr__nfet_g5v0d10v5#sbody = 5.848544e-12
m.xm24.msky130_fd_pr__pfet_g5v0d10v5#body = 2.100000e+00
m.xm24.msky130_fd_pr__pfet_g5v0d10v5#dbody = 2.100000e+00
m.xm24.msky130_fd_pr__pfet_g5v0d10v5#sbody = 2.100000e+00
m.xm26.msky130_fd_pr__pfet_g5v0d10v5#body = 2.100000e+00
m.xm26.msky130_fd_pr__pfet_g5v0d10v5#dbody = 2.100000e+00
m.xm26.msky130_fd_pr__pfet_g5v0d10v5#sbody = 2.100000e+00
mir = 8.830519e-01
net1 = 6.354095e-01
net2 = 2.394884e-06
net3 = 7.082239e-01
net4 = 2.482433e-01
net5 = 8.908039e-01
net6 = 9.321396e-01
net7 = 7.081381e-01
net8 = 9.665415e-01
net9 = 9.865532e-01
net10 = 2.650203e-01
net11 = 1.351691e+00
net12 = 1.351691e+00
net13 = 0.000000e+00
out = 1.351691e+00
pos = 1.200520e+00
q.xq2.qsky130_fd_pr__pnp_05v5_w0p68l0p68#collcx = 2.687381e-03
q.xq3.qsky130_fd_pr__pnp_05v5_w0p68l0p68#collcx = 3.416291e-04
q.xq4.qsky130_fd_pr__pnp_05v5_w0p68l0p68#collcx = 3.416291e-04
q.xq8.qsky130_fd_pr__pnp_05v5_w0p68l0p68#collcx = 3.416291e-04
q.xq10.qsky130_fd_pr__pnp_05v5_w0p68l0p68#collcx = 3.416291e-04
q.xq12.qsky130_fd_pr__pnp_05v5_w0p68l0p68#collcx = 3.416291e-04
q.xq14.qsky130_fd_pr__pnp_05v5_w0p68l0p68#collcx = 3.416291e-04
q.xq16.qsky130_fd_pr__pnp_05v5_w0p68l0p68#collcx = 3.416291e-04
q.xq18.qsky130_fd_pr__pnp_05v5_w0p68l0p68#collcx = 3.416291e-04
vb = 9.791295e-01
vdd = 2.100000e+00
vs#branch = -1.81790e-04
vt#branch = 0.000000e+00
xc1.a = 0.000000e+00
xc1.b1 = 0.000000e+00
xc3.a = 1.351691e+00
xc3.b1 = 1.351691e+00
xr1.xsky130_fd_pr__res_xhigh_po_0p69.ra = 7.163897e-01
xr2.xsky130_fd_pr__res_xhigh_po_0p69.ra = 7.164756e-01
xr3.xsky130_fd_pr__res_xhigh_po_0p69.ra = 4.956971e-03
xr4.xsky130_fd_pr__res_xhigh_po_0p69.ra = 6.387538e-01
xr5.xsky130_fd_pr__res_xhigh_po_0p69.ra = 4.956335e-03
xr6.xsky130_fd_pr__res_xhigh_po_0p69.ra = 8.740321e-03
xr7.xsky130_fd_pr__res_xhigh_po_0p69.ra = 1.351691e+00
xr8.xsky130_fd_pr__res_xhigh_po_0p69.ra = 1.215055e+00
xr9.xsky130_fd_pr__res_xhigh_po_0p69.ra = 1.524610e-02
Doing analysis at TEMP = 85.000000 and TNOM = 27.000000


No. of Data Rows : 91
Note: Starting true gmin stepping
Trying gmin =   1.0000E-03 Note: One successful gmin step
Trying gmin =   1.0000E-04 Note: One successful gmin step
Trying gmin =   1.0000E-05 Note: One successful gmin step
Trying gmin =   1.0000E-06 Note: One successful gmin step
Trying gmin =   1.0000E-07 Note: One successful gmin step
Trying gmin =   1.0000E-08 Warning: Further gmin increment
Trying gmin =   5.6234E-08 Warning: Further gmin increment
Trying gmin =   8.6596E-08 Note: One successful gmin step
Trying gmin =   6.9783E-08 Warning: Further gmin increment
Trying gmin =   8.2047E-08 Warning: Further gmin increment
Trying gmin =   8.5436E-08 Note: One successful gmin step
Trying gmin =   8.3724E-08 Note: One successful gmin step
Trying gmin =   8.1221E-08 Warning: Further gmin increment
Trying gmin =   8.3091E-08 Warning: Further gmin increment
Trying gmin =   8.3566E-08 Note: One successful gmin step
Trying gmin =   8.3328E-08 Note: One successful gmin step
Trying gmin =   8.2973E-08 Warning: Further gmin increment
Trying gmin =   8.3239E-08 Note: One successful gmin step
Trying gmin =   8.3106E-08 Warning: Further gmin increment
Trying gmin =   8.3206E-08 Note: One successful gmin step
Trying gmin =   8.3156E-08 Note: One successful gmin step
Trying gmin =   8.3081E-08 Warning: Further gmin increment
Trying gmin =   8.3137E-08 Note: One successful gmin step
Trying gmin =   8.3109E-08 Warning: Further gmin increment
Trying gmin =   8.3130E-08 Note: One successful gmin step
Trying gmin =   8.3120E-08 Note: One successful gmin step
Trying gmin =   8.3104E-08 Warning: Further gmin increment
Trying gmin =   8.3116E-08 Warning: Last gmin step failed
Warning: True gmin stepping failed
Note: Starting dynamic gmin stepping
Trying gmin =   1.0000E-03 Note: One successful gmin step
Trying gmin =   1.0000E-04 Note: One successful gmin step
Trying gmin =   1.0000E-05 Warning: Further gmin increment
Trying gmin =   5.6234E-05 Note: One successful gmin step
Trying gmin =   2.3714E-05 Note: One successful gmin step
Trying gmin =   6.4938E-06 Warning: Further gmin increment
Trying gmin =   1.7154E-05 Note: One successful gmin step
Trying gmin =   1.0554E-05 Warning: Further gmin increment
Trying gmin =   1.5193E-05 Note: One successful gmin step
Trying gmin =   1.2663E-05 Warning: Further gmin increment
Trying gmin =   1.4517E-05 Note: One successful gmin step
Trying gmin =   1.3558E-05 Note: One successful gmin step
Trying gmin =   1.2238E-05 Warning: Further gmin increment
Trying gmin =   1.3215E-05 Note: One successful gmin step
Trying gmin =   1.2717E-05 Note: One successful gmin step
Trying gmin =   1.2005E-05 Note: One successful gmin step
Trying gmin =   1.1011E-05 Note: One successful gmin step
Trying gmin =   9.6718E-06 Note: One successful gmin step
Trying gmin =   7.9623E-06 Note: One successful gmin step
Trying gmin =   5.9475E-06 Note: One successful gmin step
Trying gmin =   3.8395E-06 Note: One successful gmin step
Trying gmin =   1.9915E-06 Note: One successful gmin step
Trying gmin =   7.4397E-07 Note: One successful gmin step
Trying gmin =   1.6987E-07 Warning: Further gmin increment
Trying gmin =   5.1428E-07 Note: One successful gmin step
Trying gmin =   2.9557E-07 Warning: Further gmin increment
Trying gmin =   4.4778E-07 Note: One successful gmin step
Trying gmin =   3.6380E-07 Warning: Further gmin increment
Trying gmin =   4.2512E-07 Note: One successful gmin step
Trying gmin =   3.9326E-07 Note: One successful gmin step
Trying gmin =   3.4990E-07 Warning: Further gmin increment
Trying gmin =   3.8194E-07 Warning: Further gmin increment
Trying gmin =   3.9040E-07 Note: One successful gmin step
Trying gmin =   3.8615E-07 Warning: Further gmin increment
Trying gmin =   3.8933E-07 Note: One successful gmin step
Trying gmin =   3.8774E-07 Warning: Further gmin increment
Trying gmin =   3.8893E-07 Note: One successful gmin step
Trying gmin =   3.8834E-07 Warning: Further gmin increment
Trying gmin =   3.8878E-07 Warning: Further gmin increment
Trying gmin =   3.8890E-07 Note: One successful gmin step
Trying gmin =   3.8884E-07 Warning: Further gmin increment
Trying gmin =   3.8888E-07 Warning: Last gmin step failed
Warning: Dynamic gmin stepping failed
Note: Starting source stepping
Supplies reduced to   0.0000% Note: One successful source step
Supplies reduced to   0.1000% Note: One successful source step
Supplies reduced to   0.2000% Note: One successful source step
Supplies reduced to   0.3500% Note: One successful source step
Supplies reduced to   0.5750% Note: One successful source step
Supplies reduced to   0.9125% Note: One successful source step
Supplies reduced to   1.4188% Note: One successful source step
Supplies reduced to   2.1781% Note: One successful source step
Supplies reduced to   3.3172% Note: One successful source step
Supplies reduced to   5.0258% Note: One successful source step
Supplies reduced to   7.5887% Note: One successful source step
Supplies reduced to  11.4330% Note: One successful source step
Supplies reduced to  17.1995% Note: One successful source step
Supplies reduced to  25.8493% Supplies reduced to  17.1995% Note: One successful source step
Supplies reduced to  18.1995% Note: One successful source step
Supplies reduced to  19.6995% Note: One successful source step
Supplies reduced to  21.9495% Note: One successful source step
Supplies reduced to  25.3245% Supplies reduced to  21.9495% Note: One successful source step
Supplies reduced to  22.4558% Note: One successful source step
Supplies reduced to  23.2151% Note: One successful source step
Supplies reduced to  23.5948% Note: One successful source step
Supplies reduced to  24.1644% Note: One successful source step
Supplies reduced to  25.0187% Note: One successful source step
Supplies reduced to  26.3001% Note: One successful source step
Supplies reduced to  28.2223% Note: One successful source step
Supplies reduced to  31.1055% Note: One successful source step
Supplies reduced to  35.4304% Note: One successful source step
Supplies reduced to  41.9177% Note: One successful source step
Supplies reduced to  51.6487% Note: One successful source step
Supplies reduced to  61.3797% Note: One successful source step
Supplies reduced to  75.9761% Supplies reduced to  61.3797% Note: One successful source step
Supplies reduced to  62.3797% Note: One successful source step
Supplies reduced to  63.8797% Supplies reduced to  62.3797% Note: One successful source step
Supplies reduced to  62.6047% Note: One successful source step
Supplies reduced to  62.9422% Note: One successful source step
Supplies reduced to  63.4484% Supplies reduced to  62.9422% Note: One successful source step
Supplies reduced to  63.0181% Note: One successful source step
Supplies reduced to  63.1320% Note: One successful source step
Supplies reduced to  63.3029% Note: One successful source step
Supplies reduced to  63.5592% Supplies reduced to  63.3029% Note: One successful source step
Supplies reduced to  63.3413% Note: One successful source step
Supplies reduced to  63.3990% Note: One successful source step
Supplies reduced to  63.4855% Supplies reduced to  63.3990% Note: One successful source step
Supplies reduced to  63.4119% Note: One successful source step
Supplies reduced to  63.4314% Note: One successful source step
Supplies reduced to  63.4606% Supplies reduced to  63.4314% Note: One successful source step
Supplies reduced to  63.4358% Note: One successful source step
Supplies reduced to  63.4424% Note: One successful source step
Supplies reduced to  63.4522% Supplies reduced to  63.4424% Note: One successful source step
Supplies reduced to  63.4438% Supplies reduced to  63.4424% Note: One successful source step
Supplies reduced to  63.4426% Note: One successful source step
Supplies reduced to  63.4429% Note: One successful source step
Supplies reduced to  63.4434% Supplies reduced to  63.4429% Note: One successful source step
Supplies reduced to  63.4430% Note: One successful source step
Supplies reduced to  63.4431% Note: One successful source step
Supplies reduced to  63.4433% Note: One successful source step
Supplies reduced to  63.4435% Supplies reduced to  63.4433% Note: One successful source step
Supplies reduced to  63.4433% Warning: source stepping failed
doAnalyses: Too many iterations without convergence

dc simulation(s) aborted
Error(parse.c--checkvalid): vldo_sup_2_8: zero length vector.
Error: RHS "abs((vldo_sup_2_8-vldo_sup_2)/0.8)" invalid
Error(parse.c--checkvalid): line_reg: zero length vector.
Error(parse.c--checkvalid): vin: zero length vector.
Error: RHS "vin-1.764" invalid
Error(parse.c--checkvalid): dropout: zero length vector.
Error: no such vector dropout
Note: No ".plot", ".print", or ".fourier" lines; no simulations run
pm                  =  5.558053e+01
Doing analysis at TEMP = 85.000000 and TNOM = 27.000000


No. of Data Rows : 91
psrr100             =  -4.643865e+01
psrr100k            =  -2.612476e+01
Doing analysis at TEMP = 85.000000 and TNOM = 27.000000


No. of Data Rows : 86
temp_coeff = 1.026058e+02
Doing analysis at TEMP = 85.000000 and TNOM = 27.000000


Error: measure  vldo_sup_2  (AT) : out of interval
 meas dc vldo_sup_2 find ldo_out at=2 failed!


Error: measure  vldo_sup_2_8  (AT) : out of interval
 meas dc vldo_sup_2_8 find ldo_out at=2.8 failed!


Error: measure  vin  (WHEN) : out of interval
 meas dc vin when v(ldo_out)=1.764 failed!

