 Reference value :  0.00000e+00
No compatibility mode selected!


Circuit: * ldo netlist 

Doing analysis at TEMP = 85.000000 and TNOM = 27.000000


No. of Data Rows : 1
bg_out = 1.099752e+00
inn = 1.066041e+00
inp = 1.065923e+00
l1#branch = -1.38778e-17
ldo_out = 1.807668e+00
m.xm1.msky130_fd_pr__nfet_g5v0d10v5#body = 2.645415e-11
m.xm1.msky130_fd_pr__nfet_g5v0d10v5#dbody = 5.084583e-11
m.xm1.msky130_fd_pr__nfet_g5v0d10v5#sbody = 2.851662e-11
m.xm2.msky130_fd_pr__pfet_g5v0d10v5#body = 2.300000e+00
m.xm2.msky130_fd_pr__pfet_g5v0d10v5#dbody = 2.300000e+00
m.xm2.msky130_fd_pr__pfet_g5v0d10v5#sbody = 2.300000e+00
m.xm3.msky130_fd_pr__pfet_g5v0d10v5#body = 2.300000e+00
m.xm3.msky130_fd_pr__pfet_g5v0d10v5#dbody = 2.300000e+00
m.xm3.msky130_fd_pr__pfet_g5v0d10v5#sbody = 2.300000e+00
m.xm4.msky130_fd_pr__pfet_g5v0d10v5#body = 2.300000e+00
m.xm4.msky130_fd_pr__pfet_g5v0d10v5#dbody = 2.300000e+00
m.xm4.msky130_fd_pr__pfet_g5v0d10v5#sbody = 2.300000e+00
m.xm5.msky130_fd_pr__pfet_g5v0d10v5#body = 2.300000e+00
m.xm5.msky130_fd_pr__pfet_g5v0d10v5#dbody = 2.300000e+00
m.xm5.msky130_fd_pr__pfet_g5v0d10v5#sbody = 2.300000e+00
m.xm6.msky130_fd_pr__nfet_g5v0d10v5#body = 2.028451e-11
m.xm6.msky130_fd_pr__nfet_g5v0d10v5#dbody = 5.071116e-11
m.xm6.msky130_fd_pr__nfet_g5v0d10v5#sbody = 1.014236e-11
m.xm7.msky130_fd_pr__pfet_g5v0d10v5#body = 2.300000e+00
m.xm7.msky130_fd_pr__pfet_g5v0d10v5#dbody = 2.300000e+00
m.xm7.msky130_fd_pr__pfet_g5v0d10v5#sbody = 2.300000e+00
m.xm8.msky130_fd_pr__pfet_g5v0d10v5#body = 2.300000e+00
m.xm8.msky130_fd_pr__pfet_g5v0d10v5#dbody = 2.300000e+00
m.xm8.msky130_fd_pr__pfet_g5v0d10v5#sbody = 2.300000e+00
m.xm9.msky130_fd_pr__nfet_g5v0d10v5#body = 2.462523e-11
m.xm9.msky130_fd_pr__nfet_g5v0d10v5#dbody = 4.939544e-11
m.xm9.msky130_fd_pr__nfet_g5v0d10v5#sbody = 2.448024e-11
m.xm10.msky130_fd_pr__nfet_g5v0d10v5#body = 2.433604e-11
m.xm10.msky130_fd_pr__nfet_g5v0d10v5#dbody = 4.867247e-11
m.xm10.msky130_fd_pr__nfet_g5v0d10v5#sbody = 2.433564e-11
m.xm11.msky130_fd_pr__pfet_g5v0d10v5#body = 2.300000e+00
m.xm11.msky130_fd_pr__pfet_g5v0d10v5#dbody = 2.300000e+00
m.xm11.msky130_fd_pr__pfet_g5v0d10v5#sbody = 2.300000e+00
m.xm12.msky130_fd_pr__pfet_g5v0d10v5#body = 2.300000e+00
m.xm12.msky130_fd_pr__pfet_g5v0d10v5#dbody = 2.300000e+00
m.xm12.msky130_fd_pr__pfet_g5v0d10v5#sbody = 2.300000e+00
m.xm13.msky130_fd_pr__nfet_g5v0d10v5#body = 4.440703e-12
m.xm13.msky130_fd_pr__nfet_g5v0d10v5#dbody = 1.110170e-11
m.xm13.msky130_fd_pr__nfet_g5v0d10v5#sbody = 2.220413e-12
m.xm14.msky130_fd_pr__pfet_g5v0d10v5#body = 2.300000e+00
m.xm14.msky130_fd_pr__pfet_g5v0d10v5#dbody = 2.300000e+00
m.xm14.msky130_fd_pr__pfet_g5v0d10v5#sbody = 2.300000e+00
m.xm15.msky130_fd_pr__nfet_g5v0d10v5#body = 2.557555e-14
m.xm15.msky130_fd_pr__nfet_g5v0d10v5#dbody = 6.393805e-14
m.xm15.msky130_fd_pr__nfet_g5v0d10v5#sbody = 1.278861e-14
m.xm16.msky130_fd_pr__nfet_g5v0d10v5#body = 5.268184e-11
m.xm16.msky130_fd_pr__nfet_g5v0d10v5#dbody = 9.444724e-11
m.xm16.msky130_fd_pr__nfet_g5v0d10v5#sbody = 6.359826e-11
m.xm17.msky130_fd_pr__pfet_g5v0d10v5#body = 2.300000e+00
m.xm17.msky130_fd_pr__pfet_g5v0d10v5#dbody = 2.300000e+00
m.xm17.msky130_fd_pr__pfet_g5v0d10v5#sbody = 2.300000e+00
m.xm18.msky130_fd_pr__nfet_g5v0d10v5#body = 1.721545e-11
m.xm18.msky130_fd_pr__nfet_g5v0d10v5#dbody = 4.303855e-11
m.xm18.msky130_fd_pr__nfet_g5v0d10v5#sbody = 8.607801e-12
m.xm19.msky130_fd_pr__nfet_g5v0d10v5#body = 2.662353e-11
m.xm19.msky130_fd_pr__nfet_g5v0d10v5#dbody = 5.126928e-11
m.xm19.msky130_fd_pr__nfet_g5v0d10v5#sbody = 2.860131e-11
m.xm20.msky130_fd_pr__nfet_g5v0d10v5#body = 1.428346e-11
m.xm20.msky130_fd_pr__nfet_g5v0d10v5#dbody = 3.570858e-11
m.xm20.msky130_fd_pr__nfet_g5v0d10v5#sbody = 7.141806e-12
m.xm22.msky130_fd_pr__nfet_g5v0d10v5#body = 1.092913e-11
m.xm22.msky130_fd_pr__nfet_g5v0d10v5#dbody = 2.732271e-11
m.xm22.msky130_fd_pr__nfet_g5v0d10v5#sbody = 5.464664e-12
m.xm24.msky130_fd_pr__pfet_g5v0d10v5#body = 2.300000e+00
m.xm24.msky130_fd_pr__pfet_g5v0d10v5#dbody = 2.300000e+00
m.xm24.msky130_fd_pr__pfet_g5v0d10v5#sbody = 2.300000e+00
m.xm26.msky130_fd_pr__pfet_g5v0d10v5#body = 2.300000e+00
m.xm26.msky130_fd_pr__pfet_g5v0d10v5#dbody = 2.300000e+00
m.xm26.msky130_fd_pr__pfet_g5v0d10v5#sbody = 2.300000e+00
mir = 1.080497e+00
net1 = 6.354673e-01
net2 = 4.932082e-05
net3 = 7.082903e-01
net4 = 1.887755e-01
net5 = 1.094048e+00
net6 = 9.348595e-01
net7 = 7.081702e-01
net8 = 1.167747e+00
net9 = 1.190882e+00
net10 = 1.950973e-01
net11 = 1.216624e+00
net12 = 1.216624e+00
net13 = 0.000000e+00
out = 1.216624e+00
pos = 1.100008e+00
q.xq2.qsky130_fd_pr__pnp_05v5_w0p68l0p68#collcx = 2.686494e-03
q.xq3.qsky130_fd_pr__pnp_05v5_w0p68l0p68#collcx = 3.415123e-04
q.xq4.qsky130_fd_pr__pnp_05v5_w0p68l0p68#collcx = 3.415123e-04
q.xq8.qsky130_fd_pr__pnp_05v5_w0p68l0p68#collcx = 3.415123e-04
q.xq10.qsky130_fd_pr__pnp_05v5_w0p68l0p68#collcx = 3.415123e-04
q.xq12.qsky130_fd_pr__pnp_05v5_w0p68l0p68#collcx = 3.415123e-04
q.xq14.qsky130_fd_pr__pnp_05v5_w0p68l0p68#collcx = 3.415123e-04
q.xq16.qsky130_fd_pr__pnp_05v5_w0p68l0p68#collcx = 3.415123e-04
q.xq18.qsky130_fd_pr__pnp_05v5_w0p68l0p68#collcx = 3.415123e-04
vb = 9.820652e-01
vdd = 2.300000e+00
vs#branch = -1.01740e-02
vt#branch = 0.000000e+00
xc1.a = 0.000000e+00
xc1.b1 = 0.000000e+00
xc3.a = 1.216624e+00
xc3.b1 = 1.216624e+00
xr1.xsky130_fd_pr__res_xhigh_po_0p69.ra = 7.166164e-01
xr2.xsky130_fd_pr__res_xhigh_po_0p69.ra = 7.167365e-01
xr3.xsky130_fd_pr__res_xhigh_po_0p69.ra = 5.204216e-03
xr4.xsky130_fd_pr__res_xhigh_po_0p69.ra = 6.388104e-01
xr5.xsky130_fd_pr__res_xhigh_po_0p69.ra = 5.203282e-03
xr6.xsky130_fd_pr__res_xhigh_po_0p69.ra = 8.935854e-03
xr7.xsky130_fd_pr__res_xhigh_po_0p69.ra = 1.216624e+00
xr8.xsky130_fd_pr__res_xhigh_po_0p69.ra = 1.113586e+00
xr9.xsky130_fd_pr__res_xhigh_po_0p69.ra = 1.401836e-02
Doing analysis at TEMP = 85.000000 and TNOM = 27.000000


No. of Data Rows : 91
Error: no such vector PM
Note: Starting true gmin stepping
Trying gmin =   1.0000E-03 Note: One successful gmin step
Trying gmin =   1.0000E-04 Note: One successful gmin step
Trying gmin =   1.0000E-05 Note: One successful gmin step
Trying gmin =   1.0000E-06 Note: One successful gmin step
Trying gmin =   1.0000E-07 Warning: Further gmin increment
Trying gmin =   5.6234E-07 Note: One successful gmin step
Trying gmin =   2.3714E-07 Note: One successful gmin step
Trying gmin =   6.4938E-08 Warning: Further gmin increment
Trying gmin =   1.7154E-07 Note: One successful gmin step
Trying gmin =   1.0554E-07 Warning: Further gmin increment
Trying gmin =   1.5193E-07 Note: One successful gmin step
Trying gmin =   1.2663E-07 Warning: Further gmin increment
Trying gmin =   1.4517E-07 Note: One successful gmin step
Trying gmin =   1.3558E-07 Warning: Further gmin increment
Trying gmin =   1.4271E-07 Warning: Further gmin increment
Trying gmin =   1.4455E-07 Note: One successful gmin step
Trying gmin =   1.4363E-07 Note: One successful gmin step
Trying gmin =   1.4225E-07 Warning: Further gmin increment
Trying gmin =   1.4328E-07 Warning: Further gmin increment
Trying gmin =   1.4354E-07 Note: One successful gmin step
Trying gmin =   1.4341E-07 Warning: Further gmin increment
Trying gmin =   1.4351E-07 Note: One successful gmin step
Trying gmin =   1.4346E-07 Note: One successful gmin step
Trying gmin =   1.4339E-07 Warning: Further gmin increment
Trying gmin =   1.4344E-07 Note: One successful gmin step
Trying gmin =   1.4341E-07 Warning: Further gmin increment
Trying gmin =   1.4343E-07 Note: One successful gmin step
Trying gmin =   1.4342E-07 Note: One successful gmin step
Trying gmin =   1.4341E-07 Warning: Further gmin increment
Trying gmin =   1.4342E-07 Warning: Last gmin step failed
Warning: True gmin stepping failed
Note: Starting dynamic gmin stepping
Trying gmin =   1.0000E-03 Note: One successful gmin step
Trying gmin =   1.0000E-04 Note: One successful gmin step
Trying gmin =   1.0000E-05 Note: One successful gmin step
Trying gmin =   1.0000E-06 Warning: Further gmin increment
Trying gmin =   5.6234E-06 Note: One successful gmin step
Trying gmin =   2.3714E-06 Note: One successful gmin step
Trying gmin =   6.4938E-07 Warning: Further gmin increment
Trying gmin =   1.7154E-06 Warning: Further gmin increment
Trying gmin =   2.1870E-06 Note: One successful gmin step
Trying gmin =   1.9369E-06 Note: One successful gmin step
Trying gmin =   1.7154E-06 Note: One successful gmin step
Trying gmin =   1.4298E-06 Note: One successful gmin step
Trying gmin =   1.0880E-06 Note: One successful gmin step
Trying gmin =   7.2218E-07 Note: One successful gmin step
Trying gmin =   3.9055E-07 Note: One successful gmin step
Trying gmin =   1.5532E-07 Note: One successful gmin step
Trying gmin =   3.8953E-08 Note: One successful gmin step
Trying gmin =   4.8925E-09 Note: One successful gmin step
Trying gmin =   4.8925E-10 Note: One successful gmin step
Trying gmin =   4.8925E-11 Note: One successful gmin step
Trying gmin =   4.8925E-12 Note: One successful gmin step
Trying gmin =   1.0000E-12 Note: One successful gmin step
Note: Dynamic gmin stepping completed
 Reference value :  2.80000e+00Note: Starting true gmin stepping
Trying gmin =   1.0000E-03 Note: One successful gmin step
Trying gmin =   1.0000E-04 Note: One successful gmin step
Trying gmin =   1.0000E-05 Note: One successful gmin step
Trying gmin =   1.0000E-06 Note: One successful gmin step
Trying gmin =   1.0000E-07 Note: One successful gmin step
Trying gmin =   1.0000E-08 Note: One successful gmin step
Trying gmin =   1.0000E-09 Warning: Further gmin increment
Trying gmin =   5.6234E-09 Warning: Further gmin increment
Trying gmin =   8.6596E-09 Note: One successful gmin step
Trying gmin =   6.9783E-09 Note: One successful gmin step
Trying gmin =   5.0481E-09 Note: One successful gmin step
Trying gmin =   3.1059E-09 Note: One successful gmin step
Trying gmin =   1.4989E-09 Warning: Further gmin increment
Trying gmin =   2.5887E-09 Note: One successful gmin step
Trying gmin =   1.9699E-09 Note: One successful gmin step
Trying gmin =   1.3075E-09 Note: One successful gmin step
Trying gmin =   7.0711E-10 Note: One successful gmin step
Trying gmin =   2.8121E-10 Note: One successful gmin step
Trying gmin =   7.0527E-11 Note: One successful gmin step
Trying gmin =   8.8581E-12 Note: One successful gmin step
Trying gmin =   1.0000E-12 Note: One successful gmin step
Note: True gmin stepping completed
 Reference value :  1.26000e+00Note: Starting true gmin stepping
Trying gmin =   1.0000E-03 Note: One successful gmin step
Trying gmin =   1.0000E-04 Note: One successful gmin step
Trying gmin =   1.0000E-05 Note: One successful gmin step
Trying gmin =   1.0000E-06 Note: One successful gmin step
Trying gmin =   1.0000E-07 Note: One successful gmin step
Trying gmin =   1.0000E-08 Note: One successful gmin step
Trying gmin =   1.0000E-09 Warning: Further gmin increment
Trying gmin =   5.6234E-09 Warning: Further gmin increment
Trying gmin =   8.6596E-09 Note: One successful gmin step
Trying gmin =   6.9783E-09 Note: One successful gmin step
Trying gmin =   5.0481E-09 Note: One successful gmin step
Trying gmin =   3.1059E-09 Note: One successful gmin step
Trying gmin =   1.4989E-09 Warning: Further gmin increment
Trying gmin =   2.5887E-09 Note: One successful gmin step
Trying gmin =   1.9699E-09 Note: One successful gmin step
Trying gmin =   1.3075E-09 Note: One successful gmin step
Trying gmin =   7.0711E-10 Note: One successful gmin step
Trying gmin =   2.8121E-10 Note: One successful gmin step
Trying gmin =   7.0527E-11 Note: One successful gmin step
Trying gmin =   8.8581E-12 Note: One successful gmin step
Trying gmin =   1.0000E-12 Note: One successful gmin step
Note: True gmin stepping completed
 Reference value :  6.20000e-01
Error: measure  pm  (AT) : out of interval
 meas ac pm find p when vdb(ldo_out)=0 failed!

Doing analysis at TEMP = 85.000000 and TNOM = 27.000000


No. of Data Rows : 91
psrr100             =  -5.092432e+01
psrr100k            =  -2.385180e+01
Doing analysis at TEMP = 85.000000 and TNOM = 27.000000


No. of Data Rows : 86
temp_coeff = 2.772295e+01
Doing analysis at TEMP = 85.000000 and TNOM = 27.000000


No. of Data Rows : 141
vldo_sup_2          =  1.806148e+00
vldo_sup_2_8        =  1.808354e+00
line_reg = 2.757500e-03
Note: No ".plot", ".print", or ".fourier" lines; no simulations run
vin                 =  1.787155e+00
dropout = 2.315500e-02
