 Reference value :  0.00000e+00
No compatibility mode selected!


Circuit: * ldo netlist 

Doing analysis at TEMP = 85.000000 and TNOM = 27.000000


No. of Data Rows : 1
bg_out = 1.203486e+00
inn = 1.150009e+00
inp = 1.149971e+00
l1#branch = 0.000000e+00
ldo_out = 1.811221e+00
m.xm1.msky130_fd_pr__nfet_g5v0d10v5#body = 2.838731e-11
m.xm1.msky130_fd_pr__nfet_g5v0d10v5#dbody = 5.340388e-11
m.xm1.msky130_fd_pr__nfet_g5v0d10v5#sbody = 3.175806e-11
m.xm2.msky130_fd_pr__pfet_g5v0d10v5#body = 2.300000e+00
m.xm2.msky130_fd_pr__pfet_g5v0d10v5#dbody = 2.300000e+00
m.xm2.msky130_fd_pr__pfet_g5v0d10v5#sbody = 2.300000e+00
m.xm3.msky130_fd_pr__pfet_g5v0d10v5#body = 2.300000e+00
m.xm3.msky130_fd_pr__pfet_g5v0d10v5#dbody = 2.300000e+00
m.xm3.msky130_fd_pr__pfet_g5v0d10v5#sbody = 2.300000e+00
m.xm4.msky130_fd_pr__pfet_g5v0d10v5#body = 2.300000e+00
m.xm4.msky130_fd_pr__pfet_g5v0d10v5#dbody = 2.300000e+00
m.xm4.msky130_fd_pr__pfet_g5v0d10v5#sbody = 2.300000e+00
m.xm5.msky130_fd_pr__pfet_g5v0d10v5#body = 2.300000e+00
m.xm5.msky130_fd_pr__pfet_g5v0d10v5#dbody = 2.300000e+00
m.xm5.msky130_fd_pr__pfet_g5v0d10v5#sbody = 2.300000e+00
m.xm6.msky130_fd_pr__nfet_g5v0d10v5#body = 1.985922e-11
m.xm6.msky130_fd_pr__nfet_g5v0d10v5#dbody = 4.964792e-11
m.xm6.msky130_fd_pr__nfet_g5v0d10v5#sbody = 9.929726e-12
m.xm7.msky130_fd_pr__pfet_g5v0d10v5#body = 2.300000e+00
m.xm7.msky130_fd_pr__pfet_g5v0d10v5#dbody = 2.300000e+00
m.xm7.msky130_fd_pr__pfet_g5v0d10v5#sbody = 2.300000e+00
m.xm8.msky130_fd_pr__pfet_g5v0d10v5#body = 2.300000e+00
m.xm8.msky130_fd_pr__pfet_g5v0d10v5#dbody = 2.300000e+00
m.xm8.msky130_fd_pr__pfet_g5v0d10v5#sbody = 2.300000e+00
m.xm9.msky130_fd_pr__nfet_g5v0d10v5#body = 2.659741e-11
m.xm9.msky130_fd_pr__nfet_g5v0d10v5#dbody = 5.167659e-11
m.xm9.msky130_fd_pr__nfet_g5v0d10v5#sbody = 2.811562e-11
m.xm10.msky130_fd_pr__nfet_g5v0d10v5#body = 2.641191e-11
m.xm10.msky130_fd_pr__nfet_g5v0d10v5#dbody = 5.121286e-11
m.xm10.msky130_fd_pr__nfet_g5v0d10v5#sbody = 2.802288e-11
m.xm11.msky130_fd_pr__pfet_g5v0d10v5#body = 2.300000e+00
m.xm11.msky130_fd_pr__pfet_g5v0d10v5#dbody = 2.300000e+00
m.xm11.msky130_fd_pr__pfet_g5v0d10v5#sbody = 2.300000e+00
m.xm12.msky130_fd_pr__pfet_g5v0d10v5#body = 2.300000e+00
m.xm12.msky130_fd_pr__pfet_g5v0d10v5#dbody = 2.300000e+00
m.xm12.msky130_fd_pr__pfet_g5v0d10v5#sbody = 2.300000e+00
m.xm13.msky130_fd_pr__nfet_g5v0d10v5#body = 5.760900e-12
m.xm13.msky130_fd_pr__nfet_g5v0d10v5#dbody = 1.440218e-11
m.xm13.msky130_fd_pr__nfet_g5v0d10v5#sbody = 2.880521e-12
m.xm14.msky130_fd_pr__pfet_g5v0d10v5#body = 2.300000e+00
m.xm14.msky130_fd_pr__pfet_g5v0d10v5#dbody = 2.300000e+00
m.xm14.msky130_fd_pr__pfet_g5v0d10v5#sbody = 2.300000e+00
m.xm15.msky130_fd_pr__nfet_g5v0d10v5#body = 1.245960e-14
m.xm15.msky130_fd_pr__nfet_g5v0d10v5#dbody = 3.114823e-14
m.xm15.msky130_fd_pr__nfet_g5v0d10v5#sbody = 6.230572e-15
m.xm16.msky130_fd_pr__nfet_g5v0d10v5#body = 5.367957e-11
m.xm16.msky130_fd_pr__nfet_g5v0d10v5#dbody = 9.489425e-11
m.xm16.msky130_fd_pr__nfet_g5v0d10v5#sbody = 6.614447e-11
m.xm17.msky130_fd_pr__pfet_g5v0d10v5#body = 2.300000e+00
m.xm17.msky130_fd_pr__pfet_g5v0d10v5#dbody = 2.300000e+00
m.xm17.msky130_fd_pr__pfet_g5v0d10v5#sbody = 2.300000e+00
m.xm18.msky130_fd_pr__nfet_g5v0d10v5#body = 1.820922e-11
m.xm18.msky130_fd_pr__nfet_g5v0d10v5#dbody = 4.552287e-11
m.xm18.msky130_fd_pr__nfet_g5v0d10v5#sbody = 9.104689e-12
m.xm19.msky130_fd_pr__nfet_g5v0d10v5#body = 2.843925e-11
m.xm19.msky130_fd_pr__nfet_g5v0d10v5#dbody = 5.353371e-11
m.xm19.msky130_fd_pr__nfet_g5v0d10v5#sbody = 3.178403e-11
m.xm20.msky130_fd_pr__nfet_g5v0d10v5#body = 1.353859e-11
m.xm20.msky130_fd_pr__nfet_g5v0d10v5#dbody = 3.384640e-11
m.xm20.msky130_fd_pr__nfet_g5v0d10v5#sbody = 6.769374e-12
m.xm22.msky130_fd_pr__nfet_g5v0d10v5#body = 1.207709e-11
m.xm22.msky130_fd_pr__nfet_g5v0d10v5#dbody = 3.019261e-11
m.xm22.msky130_fd_pr__nfet_g5v0d10v5#sbody = 6.038657e-12
m.xm24.msky130_fd_pr__pfet_g5v0d10v5#body = 2.300000e+00
m.xm24.msky130_fd_pr__pfet_g5v0d10v5#dbody = 2.300000e+00
m.xm24.msky130_fd_pr__pfet_g5v0d10v5#sbody = 2.300000e+00
m.xm26.msky130_fd_pr__pfet_g5v0d10v5#body = 2.300000e+00
m.xm26.msky130_fd_pr__pfet_g5v0d10v5#dbody = 2.300000e+00
m.xm26.msky130_fd_pr__pfet_g5v0d10v5#sbody = 2.300000e+00
mir = 1.146230e+00
net1 = 6.314055e-01
net2 = 2.405490e-05
net3 = 7.052393e-01
net4 = 2.804888e-01
net5 = 1.150385e+00
net6 = 9.029103e-01
net7 = 7.052012e-01
net8 = 1.229920e+00
net9 = 1.244759e+00
net10 = 3.023526e-01
net11 = 1.298196e+00
net12 = 1.298196e+00
net13 = 0.000000e+00
out = 1.298196e+00
pos = 1.203658e+00
q.xq2.qsky130_fd_pr__pnp_05v5_w0p68l0p68#collcx = 3.101534e-03
q.xq3.qsky130_fd_pr__pnp_05v5_w0p68l0p68#collcx = 3.916157e-04
q.xq4.qsky130_fd_pr__pnp_05v5_w0p68l0p68#collcx = 3.916157e-04
q.xq8.qsky130_fd_pr__pnp_05v5_w0p68l0p68#collcx = 3.916157e-04
q.xq10.qsky130_fd_pr__pnp_05v5_w0p68l0p68#collcx = 3.916157e-04
q.xq12.qsky130_fd_pr__pnp_05v5_w0p68l0p68#collcx = 3.916157e-04
q.xq14.qsky130_fd_pr__pnp_05v5_w0p68l0p68#collcx = 3.916157e-04
q.xq16.qsky130_fd_pr__pnp_05v5_w0p68l0p68#collcx = 3.916157e-04
q.xq18.qsky130_fd_pr__pnp_05v5_w0p68l0p68#collcx = 3.916157e-04
vb = 9.245497e-01
vdd = 2.300000e+00
vs#branch = -1.02066e-02
vt#branch = 0.000000e+00
xc1.a = 0.000000e+00
xc1.b1 = 0.000000e+00
xc3.a = 1.298196e+00
xc3.b1 = 1.298196e+00
xr1.xsky130_fd_pr__res_xhigh_po_0p69.ra = 7.083767e-01
xr2.xsky130_fd_pr__res_xhigh_po_0p69.ra = 7.084149e-01
xr3.xsky130_fd_pr__res_xhigh_po_0p69.ra = 1.893494e-03
xr4.xsky130_fd_pr__res_xhigh_po_0p69.ra = 6.327051e-01
xr5.xsky130_fd_pr__res_xhigh_po_0p69.ra = 1.893386e-03
xr6.xsky130_fd_pr__res_xhigh_po_0p69.ra = 3.364061e-03
xr7.xsky130_fd_pr__res_xhigh_po_0p69.ra = 1.298196e+00
xr8.xsky130_fd_pr__res_xhigh_po_0p69.ra = 1.209247e+00
xr9.xsky130_fd_pr__res_xhigh_po_0p69.ra = 5.863122e-03
Doing analysis at TEMP = 85.000000 and TNOM = 27.000000


No. of Data Rows : 91
Note: Starting true gmin stepping
Trying gmin =   1.0000E-03 Note: One successful gmin step
Trying gmin =   1.0000E-04 Note: One successful gmin step
Trying gmin =   1.0000E-05 Note: One successful gmin step
Trying gmin =   1.0000E-06 Note: One successful gmin step
Trying gmin =   1.0000E-07 Note: One successful gmin step
Trying gmin =   1.0000E-08 Warning: Further gmin increment
Trying gmin =   5.6234E-08 Warning: Further gmin increment
Trying gmin =   8.6596E-08 Note: One successful gmin step
Trying gmin =   6.9783E-08 Warning: Further gmin increment
Trying gmin =   8.2047E-08 Note: One successful gmin step
Trying gmin =   7.5667E-08 Warning: Further gmin increment
Trying gmin =   8.0403E-08 Note: One successful gmin step
Trying gmin =   7.7999E-08 Note: One successful gmin step
Trying gmin =   7.4527E-08 Warning: Further gmin increment
Trying gmin =   7.7116E-08 Warning: Further gmin increment
Trying gmin =   7.7777E-08 Note: One successful gmin step
Trying gmin =   7.7446E-08 Warning: Further gmin increment
Trying gmin =   7.7695E-08 Warning: Further gmin increment
Trying gmin =   7.7757E-08 Note: One successful gmin step
Trying gmin =   7.7726E-08 Note: One successful gmin step
Trying gmin =   7.7679E-08 Warning: Further gmin increment
Trying gmin =   7.7714E-08 Note: One successful gmin step
Trying gmin =   7.7696E-08 Warning: Further gmin increment
Trying gmin =   7.7710E-08 Note: One successful gmin step
Trying gmin =   7.7703E-08 Warning: Further gmin increment
Trying gmin =   7.7708E-08 Note: One successful gmin step
Trying gmin =   7.7705E-08 Note: One successful gmin step
Trying gmin =   7.7702E-08 Warning: Last gmin step failed
Warning: True gmin stepping failed
Note: Starting dynamic gmin stepping
Trying gmin =   1.0000E-03 Note: One successful gmin step
Trying gmin =   1.0000E-04 Note: One successful gmin step
Trying gmin =   1.0000E-05 Warning: Further gmin increment
Trying gmin =   5.6234E-05 Note: One successful gmin step
Trying gmin =   2.3714E-05 Note: One successful gmin step
Trying gmin =   6.4938E-06 Warning: Further gmin increment
Trying gmin =   1.7154E-05 Note: One successful gmin step
Trying gmin =   1.0554E-05 Note: One successful gmin step
Trying gmin =   6.4938E-06 Note: One successful gmin step
Trying gmin =   3.1340E-06 Note: One successful gmin step
Trying gmin =   1.5125E-06 Warning: Further gmin increment
Trying gmin =   2.6121E-06 Warning: Further gmin increment
Trying gmin =   2.9945E-06 Note: One successful gmin step
Trying gmin =   2.7968E-06 Note: One successful gmin step
Trying gmin =   2.5244E-06 Note: One successful gmin step
Trying gmin =   2.2786E-06 Note: One successful gmin step
Trying gmin =   1.9540E-06 Note: One successful gmin step
Trying gmin =   1.5517E-06 Note: One successful gmin step
Trying gmin =   1.0981E-06 Note: One successful gmin step
Trying gmin =   6.5371E-07 Note: One successful gmin step
Trying gmin =   3.0027E-07 Note: One successful gmin step
Trying gmin =   9.3473E-08 Note: One successful gmin step
Trying gmin =   1.6235E-08 Note: One successful gmin step
Trying gmin =   1.6235E-09 Note: One successful gmin step
Trying gmin =   1.6235E-10 Note: One successful gmin step
Trying gmin =   1.6235E-11 Note: One successful gmin step
Trying gmin =   1.6235E-12 Note: One successful gmin step
Trying gmin =   1.0000E-12 Note: One successful gmin step
Note: Dynamic gmin stepping completed
 Reference value :  2.80000e+00Note: Starting true gmin stepping
Trying gmin =   1.0000E-03 Note: One successful gmin step
Trying gmin =   1.0000E-04 Note: One successful gmin step
Trying gmin =   1.0000E-05 Note: One successful gmin step
Trying gmin =   1.0000E-06 Note: One successful gmin step
Trying gmin =   1.0000E-07 Note: One successful gmin step
Trying gmin =   1.0000E-08 Warning: Further gmin increment
Trying gmin =   5.6234E-08 Note: One successful gmin step
Trying gmin =   2.3714E-08 Note: One successful gmin step
Trying gmin =   6.4938E-09 Warning: Further gmin increment
Trying gmin =   1.7154E-08 Note: One successful gmin step
Trying gmin =   1.0554E-08 Note: One successful gmin step
Trying gmin =   5.0937E-09 Note: One successful gmin step
Trying gmin =   1.7077E-09 Warning: Further gmin increment
Trying gmin =   3.8760E-09 Note: One successful gmin step
Trying gmin =   2.5728E-09 Note: One successful gmin step
Trying gmin =   1.3913E-09 Note: One successful gmin step
Trying gmin =   5.5333E-10 Note: One successful gmin step
Trying gmin =   1.3877E-10 Note: One successful gmin step
Trying gmin =   1.7430E-11 Note: One successful gmin step
Trying gmin =   1.7430E-12 Note: One successful gmin step
Trying gmin =   1.0000E-12 Note: One successful gmin step
Note: True gmin stepping completed
 Reference value :  1.16000e+00Note: Starting true gmin stepping
Trying gmin =   1.0000E-03 Note: One successful gmin step
Trying gmin =   1.0000E-04 Note: One successful gmin step
Trying gmin =   1.0000E-05 Note: One successful gmin step
Trying gmin =   1.0000E-06 Note: One successful gmin step
Trying gmin =   1.0000E-07 Note: One successful gmin step
Trying gmin =   1.0000E-08 Note: One successful gmin step
Trying gmin =   1.0000E-09 Warning: Further gmin increment
Trying gmin =   5.6234E-09 Note: One successful gmin step
Trying gmin =   2.3714E-09 Warning: Further gmin increment
Trying gmin =   4.5316E-09 Note: One successful gmin step
Trying gmin =   3.2781E-09 Note: One successful gmin step
Trying gmin =   2.0169E-09 Note: One successful gmin step
Trying gmin =   9.7338E-10 Note: One successful gmin step
Trying gmin =   3.2634E-10 Note: One successful gmin step
Trying gmin =   6.3352E-11 Note: One successful gmin step
Trying gmin =   6.3352E-12 Note: One successful gmin step
Trying gmin =   1.0000E-12 Note: One successful gmin step
Note: True gmin stepping completed
pm                  =  -7.451439e+01
Doing analysis at TEMP = 85.000000 and TNOM = 27.000000


No. of Data Rows : 91
psrr100             =  -5.051132e+01
psrr100k            =  -2.476482e+01
Doing analysis at TEMP = 85.000000 and TNOM = 27.000000


No. of Data Rows : 86
temp_coeff = 1.679291e+02
Doing analysis at TEMP = 85.000000 and TNOM = 27.000000


No. of Data Rows : 141
vldo_sup_2          =  1.810093e+00
vldo_sup_2_8        =  1.812405e+00
line_reg = 2.890000e-03
Note: No ".plot", ".print", or ".fourier" lines; no simulations run
vin                 =  1.783008e+00
dropout = 1.900800e-02
