 Reference value :  0.00000e+00
No compatibility mode selected!


Circuit: * ldo netlist 

Doing analysis at TEMP = 27.000000 and TNOM = 27.000000


No. of Data Rows : 1
bg_out = 1.195757e+00
inn = 1.227498e+00
inp = 1.227488e+00
l1#branch = 2.775558e-17
ldo_out = 1.799327e+00
m.xm1.msky130_fd_pr__nfet_g5v0d10v5#body = 1.903146e-11
m.xm1.msky130_fd_pr__nfet_g5v0d10v5#dbody = 3.903702e-11
m.xm1.msky130_fd_pr__nfet_g5v0d10v5#sbody = 1.805736e-11
m.xm2.msky130_fd_pr__pfet_g5v0d10v5#body = 2.500000e+00
m.xm2.msky130_fd_pr__pfet_g5v0d10v5#dbody = 2.500000e+00
m.xm2.msky130_fd_pr__pfet_g5v0d10v5#sbody = 2.500000e+00
m.xm3.msky130_fd_pr__pfet_g5v0d10v5#body = 2.500000e+00
m.xm3.msky130_fd_pr__pfet_g5v0d10v5#dbody = 2.500000e+00
m.xm3.msky130_fd_pr__pfet_g5v0d10v5#sbody = 2.500000e+00
m.xm4.msky130_fd_pr__pfet_g5v0d10v5#body = 2.500000e+00
m.xm4.msky130_fd_pr__pfet_g5v0d10v5#dbody = 2.500000e+00
m.xm4.msky130_fd_pr__pfet_g5v0d10v5#sbody = 2.500000e+00
m.xm5.msky130_fd_pr__pfet_g5v0d10v5#body = 2.500000e+00
m.xm5.msky130_fd_pr__pfet_g5v0d10v5#dbody = 2.500000e+00
m.xm5.msky130_fd_pr__pfet_g5v0d10v5#sbody = 2.500000e+00
m.xm6.msky130_fd_pr__nfet_g5v0d10v5#body = 1.116562e-11
m.xm6.msky130_fd_pr__nfet_g5v0d10v5#dbody = 2.791404e-11
m.xm6.msky130_fd_pr__nfet_g5v0d10v5#sbody = 5.582814e-12
m.xm7.msky130_fd_pr__pfet_g5v0d10v5#body = 2.500000e+00
m.xm7.msky130_fd_pr__pfet_g5v0d10v5#dbody = 2.500000e+00
m.xm7.msky130_fd_pr__pfet_g5v0d10v5#sbody = 2.500000e+00
m.xm8.msky130_fd_pr__pfet_g5v0d10v5#body = 2.500000e+00
m.xm8.msky130_fd_pr__pfet_g5v0d10v5#dbody = 2.500000e+00
m.xm8.msky130_fd_pr__pfet_g5v0d10v5#sbody = 2.500000e+00
m.xm9.msky130_fd_pr__nfet_g5v0d10v5#body = 1.970711e-11
m.xm9.msky130_fd_pr__nfet_g5v0d10v5#dbody = 4.162380e-11
m.xm9.msky130_fd_pr__nfet_g5v0d10v5#sbody = 1.749752e-11
m.xm10.msky130_fd_pr__nfet_g5v0d10v5#body = 1.953371e-11
m.xm10.msky130_fd_pr__nfet_g5v0d10v5#dbody = 4.119031e-11
m.xm10.msky130_fd_pr__nfet_g5v0d10v5#sbody = 1.741082e-11
m.xm11.msky130_fd_pr__pfet_g5v0d10v5#body = 2.500000e+00
m.xm11.msky130_fd_pr__pfet_g5v0d10v5#dbody = 2.500000e+00
m.xm11.msky130_fd_pr__pfet_g5v0d10v5#sbody = 2.500000e+00
m.xm12.msky130_fd_pr__pfet_g5v0d10v5#body = 2.500000e+00
m.xm12.msky130_fd_pr__pfet_g5v0d10v5#dbody = 2.500000e+00
m.xm12.msky130_fd_pr__pfet_g5v0d10v5#sbody = 2.500000e+00
m.xm13.msky130_fd_pr__nfet_g5v0d10v5#body = 3.820625e-12
m.xm13.msky130_fd_pr__nfet_g5v0d10v5#dbody = 9.551551e-12
m.xm13.msky130_fd_pr__nfet_g5v0d10v5#sbody = 1.910324e-12
m.xm14.msky130_fd_pr__pfet_g5v0d10v5#body = 2.500000e+00
m.xm14.msky130_fd_pr__pfet_g5v0d10v5#dbody = 2.500000e+00
m.xm14.msky130_fd_pr__pfet_g5v0d10v5#sbody = 2.500000e+00
m.xm15.msky130_fd_pr__nfet_g5v0d10v5#body = 2.298389e-16
m.xm15.msky130_fd_pr__nfet_g5v0d10v5#dbody = 5.745751e-16
m.xm15.msky130_fd_pr__nfet_g5v0d10v5#sbody = 1.149416e-16
m.xm16.msky130_fd_pr__nfet_g5v0d10v5#body = 4.660236e-11
m.xm16.msky130_fd_pr__nfet_g5v0d10v5#dbody = 8.580981e-11
m.xm16.msky130_fd_pr__nfet_g5v0d10v5#sbody = 5.399726e-11
m.xm17.msky130_fd_pr__pfet_g5v0d10v5#body = 2.500000e+00
m.xm17.msky130_fd_pr__pfet_g5v0d10v5#dbody = 2.500000e+00
m.xm17.msky130_fd_pr__pfet_g5v0d10v5#sbody = 2.500000e+00
m.xm18.msky130_fd_pr__nfet_g5v0d10v5#body = 1.632595e-11
m.xm18.msky130_fd_pr__nfet_g5v0d10v5#dbody = 4.081467e-11
m.xm18.msky130_fd_pr__nfet_g5v0d10v5#sbody = 8.162989e-12
m.xm19.msky130_fd_pr__nfet_g5v0d10v5#body = 1.904855e-11
m.xm19.msky130_fd_pr__nfet_g5v0d10v5#dbody = 3.907975e-11
m.xm19.msky130_fd_pr__nfet_g5v0d10v5#sbody = 1.806591e-11
m.xm20.msky130_fd_pr__nfet_g5v0d10v5#body = 1.108109e-11
m.xm20.msky130_fd_pr__nfet_g5v0d10v5#dbody = 2.770270e-11
m.xm20.msky130_fd_pr__nfet_g5v0d10v5#sbody = 5.540556e-12
m.xm22.msky130_fd_pr__nfet_g5v0d10v5#body = 4.273529e-12
m.xm22.msky130_fd_pr__nfet_g5v0d10v5#dbody = 1.068382e-11
m.xm22.msky130_fd_pr__nfet_g5v0d10v5#sbody = 2.136769e-12
m.xm24.msky130_fd_pr__pfet_g5v0d10v5#body = 2.500000e+00
m.xm24.msky130_fd_pr__pfet_g5v0d10v5#dbody = 2.500000e+00
m.xm24.msky130_fd_pr__pfet_g5v0d10v5#sbody = 2.500000e+00
m.xm26.msky130_fd_pr__pfet_g5v0d10v5#body = 2.500000e+00
m.xm26.msky130_fd_pr__pfet_g5v0d10v5#dbody = 2.500000e+00
m.xm26.msky130_fd_pr__pfet_g5v0d10v5#sbody = 2.500000e+00
mir = 1.180507e+00
net1 = 7.274673e-01
net2 = 1.768590e-05
net3 = 7.873353e-01
net4 = 3.413200e-01
net5 = 1.181874e+00
net6 = 8.926870e-01
net7 = 7.873243e-01
net8 = 1.256701e+00
net9 = 1.270573e+00
net10 = 3.055219e-01
net11 = 1.305940e+00
net12 = 1.305940e+00
net13 = 0.000000e+00
out = 1.305940e+00
pos = 1.195887e+00
q.xq2.qsky130_fd_pr__pnp_05v5_w0p68l0p68#collcx = 2.278536e-03
q.xq3.qsky130_fd_pr__pnp_05v5_w0p68l0p68#collcx = 2.871379e-04
q.xq4.qsky130_fd_pr__pnp_05v5_w0p68l0p68#collcx = 2.871379e-04
q.xq8.qsky130_fd_pr__pnp_05v5_w0p68l0p68#collcx = 2.871379e-04
q.xq10.qsky130_fd_pr__pnp_05v5_w0p68l0p68#collcx = 2.871379e-04
q.xq12.qsky130_fd_pr__pnp_05v5_w0p68l0p68#collcx = 2.871379e-04
q.xq14.qsky130_fd_pr__pnp_05v5_w0p68l0p68#collcx = 2.871379e-04
q.xq16.qsky130_fd_pr__pnp_05v5_w0p68l0p68#collcx = 2.871379e-04
q.xq18.qsky130_fd_pr__pnp_05v5_w0p68l0p68#collcx = 2.871379e-04
vb = 8.863587e-01
vdd = 2.500000e+00
vs#branch = -1.01291e-02
vt#branch = 0.000000e+00
xc1.a = 0.000000e+00
xc1.b1 = 0.000000e+00
xc3.a = 1.305940e+00
xc3.b1 = 1.305940e+00
xr1.xsky130_fd_pr__res_xhigh_po_0p69.ra = 7.902282e-01
xr2.xsky130_fd_pr__res_xhigh_po_0p69.ra = 7.902392e-01
xr3.xsky130_fd_pr__res_xhigh_po_0p69.ra = 1.966697e-03
xr4.xsky130_fd_pr__res_xhigh_po_0p69.ra = 7.284424e-01
xr5.xsky130_fd_pr__res_xhigh_po_0p69.ra = 1.966668e-03
xr6.xsky130_fd_pr__res_xhigh_po_0p69.ra = 3.086716e-03
xr7.xsky130_fd_pr__res_xhigh_po_0p69.ra = 1.305940e+00
xr8.xsky130_fd_pr__res_xhigh_po_0p69.ra = 1.201018e+00
xr9.xsky130_fd_pr__res_xhigh_po_0p69.ra = 5.380403e-03
Doing analysis at TEMP = 27.000000 and TNOM = 27.000000


No. of Data Rows : 91
Note: Starting true gmin stepping
Trying gmin =   1.0000E-03 Note: One successful gmin step
Trying gmin =   1.0000E-04 Note: One successful gmin step
Trying gmin =   1.0000E-05 Note: One successful gmin step
Trying gmin =   1.0000E-06 Note: One successful gmin step
Trying gmin =   1.0000E-07 Warning: Further gmin increment
Trying gmin =   5.6234E-07 Note: One successful gmin step
Trying gmin =   2.3714E-07 Note: One successful gmin step
Trying gmin =   6.4938E-08 Note: One successful gmin step
Trying gmin =   9.3057E-09 Warning: Further gmin increment
Trying gmin =   3.9954E-08 Warning: Further gmin increment
Trying gmin =   5.7513E-08 Note: One successful gmin step
Trying gmin =   4.7936E-08 Note: One successful gmin step
Trying gmin =   3.6476E-08 Note: One successful gmin step
Trying gmin =   2.4212E-08 Note: One successful gmin step
Trying gmin =   1.3094E-08 Note: One successful gmin step
Trying gmin =   5.2073E-09 Note: One successful gmin step
Trying gmin =   1.3060E-09 Note: One successful gmin step
Trying gmin =   1.6403E-10 Note: One successful gmin step
Trying gmin =   1.6403E-11 Note: One successful gmin step
Trying gmin =   1.6403E-12 Note: One successful gmin step
Trying gmin =   1.0000E-12 Note: One successful gmin step
Note: True gmin stepping completed
 Reference value :  1.56000e+00Note: Starting true gmin stepping
Trying gmin =   1.0000E-03 Note: One successful gmin step
Trying gmin =   1.0000E-04 Note: One successful gmin step
Trying gmin =   1.0000E-05 Note: One successful gmin step
Trying gmin =   1.0000E-06 Note: One successful gmin step
Trying gmin =   1.0000E-07 Warning: Further gmin increment
Trying gmin =   5.6234E-07 Note: One successful gmin step
Trying gmin =   2.3714E-07 Note: One successful gmin step
Trying gmin =   6.4938E-08 Note: One successful gmin step
Trying gmin =   9.3057E-09 Warning: Further gmin increment
Trying gmin =   3.9954E-08 Warning: Further gmin increment
Trying gmin =   5.7513E-08 Note: One successful gmin step
Trying gmin =   4.7936E-08 Note: One successful gmin step
Trying gmin =   3.6476E-08 Note: One successful gmin step
Trying gmin =   2.4212E-08 Note: One successful gmin step
Trying gmin =   1.3094E-08 Note: One successful gmin step
Trying gmin =   5.2073E-09 Note: One successful gmin step
Trying gmin =   1.3060E-09 Note: One successful gmin step
Trying gmin =   1.6403E-10 Note: One successful gmin step
Trying gmin =   1.6403E-11 Note: One successful gmin step
Trying gmin =   1.6403E-12 Note: One successful gmin step
Trying gmin =   1.0000E-12 Note: One successful gmin step
Note: True gmin stepping completed
 Reference value :  1.20000e-01pm                  =  -1.001282e+02
Doing analysis at TEMP = 27.000000 and TNOM = 27.000000


No. of Data Rows : 91
psrr100             =  -8.548798e+01
psrr100k            =  -2.616573e+01
Doing analysis at TEMP = 27.000000 and TNOM = 27.000000


No. of Data Rows : 86
temp_coeff = 1.808974e+02
Doing analysis at TEMP = 27.000000 and TNOM = 27.000000


No. of Data Rows : 141
vldo_sup_2          =  1.799109e+00
vldo_sup_2_8        =  1.799326e+00
line_reg = 2.712500e-04
Note: No ".plot", ".print", or ".fourier" lines; no simulations run
vin                 =  1.786375e+00
dropout = 2.237500e-02
