 Reference value :  0.00000e+00
No compatibility mode selected!


Circuit: * ldo netlist 

Doing analysis at TEMP = 85.000000 and TNOM = 27.000000


No. of Data Rows : 1
bg_out = 1.096595e+00
inn = 1.055871e+00
inp = 1.055810e+00
l1#branch = 0.000000e+00
ldo_out = 1.802925e+00
m.xm1.msky130_fd_pr__nfet_g5v0d10v5#body = 2.617747e-11
m.xm1.msky130_fd_pr__nfet_g5v0d10v5#dbody = 4.879722e-11
m.xm1.msky130_fd_pr__nfet_g5v0d10v5#sbody = 2.973517e-11
m.xm2.msky130_fd_pr__pfet_g5v0d10v5#body = 2.100000e+00
m.xm2.msky130_fd_pr__pfet_g5v0d10v5#dbody = 2.100000e+00
m.xm2.msky130_fd_pr__pfet_g5v0d10v5#sbody = 2.100000e+00
m.xm3.msky130_fd_pr__pfet_g5v0d10v5#body = 2.100000e+00
m.xm3.msky130_fd_pr__pfet_g5v0d10v5#dbody = 2.100000e+00
m.xm3.msky130_fd_pr__pfet_g5v0d10v5#sbody = 2.100000e+00
m.xm4.msky130_fd_pr__pfet_g5v0d10v5#body = 2.100000e+00
m.xm4.msky130_fd_pr__pfet_g5v0d10v5#dbody = 2.100000e+00
m.xm4.msky130_fd_pr__pfet_g5v0d10v5#sbody = 2.100000e+00
m.xm5.msky130_fd_pr__pfet_g5v0d10v5#body = 2.100000e+00
m.xm5.msky130_fd_pr__pfet_g5v0d10v5#dbody = 2.100000e+00
m.xm5.msky130_fd_pr__pfet_g5v0d10v5#sbody = 2.100000e+00
m.xm6.msky130_fd_pr__nfet_g5v0d10v5#body = 1.938171e-11
m.xm6.msky130_fd_pr__nfet_g5v0d10v5#dbody = 4.845415e-11
m.xm6.msky130_fd_pr__nfet_g5v0d10v5#sbody = 9.690975e-12
m.xm7.msky130_fd_pr__pfet_g5v0d10v5#body = 2.100000e+00
m.xm7.msky130_fd_pr__pfet_g5v0d10v5#dbody = 2.100000e+00
m.xm7.msky130_fd_pr__pfet_g5v0d10v5#sbody = 2.100000e+00
m.xm8.msky130_fd_pr__pfet_g5v0d10v5#body = 2.100000e+00
m.xm8.msky130_fd_pr__pfet_g5v0d10v5#dbody = 2.100000e+00
m.xm8.msky130_fd_pr__pfet_g5v0d10v5#sbody = 2.100000e+00
m.xm9.msky130_fd_pr__nfet_g5v0d10v5#body = 2.433132e-11
m.xm9.msky130_fd_pr__nfet_g5v0d10v5#dbody = 4.709791e-11
m.xm9.msky130_fd_pr__nfet_g5v0d10v5#sbody = 2.589606e-11
m.xm10.msky130_fd_pr__nfet_g5v0d10v5#body = 2.425262e-11
m.xm10.msky130_fd_pr__nfet_g5v0d10v5#dbody = 4.690114e-11
m.xm10.msky130_fd_pr__nfet_g5v0d10v5#sbody = 2.585670e-11
m.xm11.msky130_fd_pr__pfet_g5v0d10v5#body = 2.100000e+00
m.xm11.msky130_fd_pr__pfet_g5v0d10v5#dbody = 2.100000e+00
m.xm11.msky130_fd_pr__pfet_g5v0d10v5#sbody = 2.100000e+00
m.xm12.msky130_fd_pr__pfet_g5v0d10v5#body = 2.100000e+00
m.xm12.msky130_fd_pr__pfet_g5v0d10v5#dbody = 2.100000e+00
m.xm12.msky130_fd_pr__pfet_g5v0d10v5#sbody = 2.100000e+00
m.xm13.msky130_fd_pr__nfet_g5v0d10v5#body = 5.218093e-12
m.xm13.msky130_fd_pr__nfet_g5v0d10v5#dbody = 1.304516e-11
m.xm13.msky130_fd_pr__nfet_g5v0d10v5#sbody = 2.609117e-12
m.xm14.msky130_fd_pr__pfet_g5v0d10v5#body = 2.100000e+00
m.xm14.msky130_fd_pr__pfet_g5v0d10v5#dbody = 2.100000e+00
m.xm14.msky130_fd_pr__pfet_g5v0d10v5#sbody = 2.100000e+00
m.xm15.msky130_fd_pr__nfet_g5v0d10v5#body = 1.075630e-14
m.xm15.msky130_fd_pr__nfet_g5v0d10v5#dbody = 2.689006e-14
m.xm15.msky130_fd_pr__nfet_g5v0d10v5#sbody = 5.378841e-15
m.xm16.msky130_fd_pr__nfet_g5v0d10v5#body = 4.995100e-11
m.xm16.msky130_fd_pr__nfet_g5v0d10v5#dbody = 8.797811e-11
m.xm16.msky130_fd_pr__nfet_g5v0d10v5#sbody = 6.187489e-11
m.xm17.msky130_fd_pr__pfet_g5v0d10v5#body = 2.100000e+00
m.xm17.msky130_fd_pr__pfet_g5v0d10v5#dbody = 2.100000e+00
m.xm17.msky130_fd_pr__pfet_g5v0d10v5#sbody = 2.100000e+00
m.xm18.msky130_fd_pr__nfet_g5v0d10v5#body = 9.840502e-12
m.xm18.msky130_fd_pr__nfet_g5v0d10v5#dbody = 2.460117e-11
m.xm18.msky130_fd_pr__nfet_g5v0d10v5#sbody = 4.920328e-12
m.xm19.msky130_fd_pr__nfet_g5v0d10v5#body = 2.625595e-11
m.xm19.msky130_fd_pr__nfet_g5v0d10v5#dbody = 4.899343e-11
m.xm19.msky130_fd_pr__nfet_g5v0d10v5#sbody = 2.977442e-11
m.xm20.msky130_fd_pr__nfet_g5v0d10v5#body = 1.279170e-11
m.xm20.msky130_fd_pr__nfet_g5v0d10v5#dbody = 3.197917e-11
m.xm20.msky130_fd_pr__nfet_g5v0d10v5#sbody = 6.395930e-12
m.xm22.msky130_fd_pr__nfet_g5v0d10v5#body = 1.161681e-11
m.xm22.msky130_fd_pr__nfet_g5v0d10v5#dbody = 2.904190e-11
m.xm22.msky130_fd_pr__nfet_g5v0d10v5#sbody = 5.808517e-12
m.xm24.msky130_fd_pr__pfet_g5v0d10v5#body = 2.100000e+00
m.xm24.msky130_fd_pr__pfet_g5v0d10v5#dbody = 2.100000e+00
m.xm24.msky130_fd_pr__pfet_g5v0d10v5#sbody = 2.100000e+00
m.xm26.msky130_fd_pr__pfet_g5v0d10v5#body = 2.100000e+00
m.xm26.msky130_fd_pr__pfet_g5v0d10v5#dbody = 2.100000e+00
m.xm26.msky130_fd_pr__pfet_g5v0d10v5#sbody = 2.100000e+00
mir = 1.008235e+00
net1 = 6.240785e-01
net2 = 2.079677e-05
net3 = 6.981136e-01
net4 = 2.460103e-01
net5 = 1.014514e+00
net6 = 8.667841e-01
net7 = 6.980509e-01
net8 = 1.102711e+00
net9 = 1.109008e+00
net10 = 2.610455e-01
net11 = 6.307770e-01
net12 = 6.307770e-01
net13 = 0.000000e+00
out = 6.307770e-01
pos = 1.096673e+00
q.xq2.qsky130_fd_pr__pnp_05v5_w0p68l0p68#collcx = 3.164786e-03
q.xq3.qsky130_fd_pr__pnp_05v5_w0p68l0p68#collcx = 3.983542e-04
q.xq4.qsky130_fd_pr__pnp_05v5_w0p68l0p68#collcx = 3.983542e-04
q.xq8.qsky130_fd_pr__pnp_05v5_w0p68l0p68#collcx = 3.983542e-04
q.xq10.qsky130_fd_pr__pnp_05v5_w0p68l0p68#collcx = 3.983542e-04
q.xq12.qsky130_fd_pr__pnp_05v5_w0p68l0p68#collcx = 3.983542e-04
q.xq14.qsky130_fd_pr__pnp_05v5_w0p68l0p68#collcx = 3.983542e-04
q.xq16.qsky130_fd_pr__pnp_05v5_w0p68l0p68#collcx = 3.983542e-04
q.xq18.qsky130_fd_pr__pnp_05v5_w0p68l0p68#collcx = 3.983542e-04
vb = 8.668729e-01
vdd = 2.100000e+00
vs#branch = -1.00306e-01
vt#branch = 0.000000e+00
xc1.a = 0.000000e+00
xc1.b1 = 0.000000e+00
xc3.a = 6.307770e-01
xc3.b1 = 6.307770e-01
xr1.xsky130_fd_pr__res_xhigh_po_0p69.ra = 7.012840e-01
xr2.xsky130_fd_pr__res_xhigh_po_0p69.ra = 7.013466e-01
xr3.xsky130_fd_pr__res_xhigh_po_0p69.ra = 1.966367e-03
xr4.xsky130_fd_pr__res_xhigh_po_0p69.ra = 6.253813e-01
xr5.xsky130_fd_pr__res_xhigh_po_0p69.ra = 1.966181e-03
xr6.xsky130_fd_pr__res_xhigh_po_0p69.ra = 3.417962e-03
xr7.xsky130_fd_pr__res_xhigh_po_0p69.ra = 6.307770e-01
xr8.xsky130_fd_pr__res_xhigh_po_0p69.ra = 1.101864e+00
xr9.xsky130_fd_pr__res_xhigh_po_0p69.ra = 5.357579e-03
Doing analysis at TEMP = 85.000000 and TNOM = 27.000000


No. of Data Rows : 91
Error: no such vector PM
Note: Starting true gmin stepping
Trying gmin =   1.0000E-03 Note: One successful gmin step
Trying gmin =   1.0000E-04 Note: One successful gmin step
Trying gmin =   1.0000E-05 Note: One successful gmin step
Trying gmin =   1.0000E-06 Note: One successful gmin step
Trying gmin =   1.0000E-07 Note: One successful gmin step
Trying gmin =   1.0000E-08 Note: One successful gmin step
Trying gmin =   3.1623E-09 Note: One successful gmin step
Trying gmin =   5.6234E-10 Note: One successful gmin step
Trying gmin =   5.6234E-11 Note: One successful gmin step
Trying gmin =   5.6234E-12 Note: One successful gmin step
Trying gmin =   1.0000E-12 Note: One successful gmin step
Note: True gmin stepping completed
 Reference value :  1.10000e+00
Error: measure  pm  (AT) : out of interval
 meas ac pm find p when vdb(ldo_out)=0 failed!

Doing analysis at TEMP = 85.000000 and TNOM = 27.000000


No. of Data Rows : 91
psrr100             =  -4.774811e+01
psrr100k            =  -1.715812e+01
Doing analysis at TEMP = 85.000000 and TNOM = 27.000000


No. of Data Rows : 86
temp_coeff = 4.485496e+01
Doing analysis at TEMP = 85.000000 and TNOM = 27.000000


No. of Data Rows : 141
vldo_sup_2          =  1.802353e+00
vldo_sup_2_8        =  1.804394e+00
line_reg = 2.551250e-03
Note: No ".plot", ".print", or ".fourier" lines; no simulations run
vin                 =  1.920249e+00
dropout = 1.562490e-01
