 Reference value :  0.00000e+00
No compatibility mode selected!


Circuit: * ldo netlist 

Doing analysis at TEMP = 27.000000 and TNOM = 27.000000


No. of Data Rows : 1
bg_out = 1.189153e+00
inn = 1.217308e+00
inp = 1.217295e+00
l1#branch = 0.000000e+00
ldo_out = 1.788651e+00
m.xm1.msky130_fd_pr__nfet_g5v0d10v5#body = 1.836971e-11
m.xm1.msky130_fd_pr__nfet_g5v0d10v5#dbody = 3.790429e-11
m.xm1.msky130_fd_pr__nfet_g5v0d10v5#sbody = 1.720483e-11
m.xm2.msky130_fd_pr__pfet_g5v0d10v5#body = 2.300000e+00
m.xm2.msky130_fd_pr__pfet_g5v0d10v5#dbody = 2.300000e+00
m.xm2.msky130_fd_pr__pfet_g5v0d10v5#sbody = 2.300000e+00
m.xm3.msky130_fd_pr__pfet_g5v0d10v5#body = 2.300000e+00
m.xm3.msky130_fd_pr__pfet_g5v0d10v5#dbody = 2.300000e+00
m.xm3.msky130_fd_pr__pfet_g5v0d10v5#sbody = 2.300000e+00
m.xm4.msky130_fd_pr__pfet_g5v0d10v5#body = 2.300000e+00
m.xm4.msky130_fd_pr__pfet_g5v0d10v5#dbody = 2.300000e+00
m.xm4.msky130_fd_pr__pfet_g5v0d10v5#sbody = 2.300000e+00
m.xm5.msky130_fd_pr__pfet_g5v0d10v5#body = 2.300000e+00
m.xm5.msky130_fd_pr__pfet_g5v0d10v5#dbody = 2.300000e+00
m.xm5.msky130_fd_pr__pfet_g5v0d10v5#sbody = 2.300000e+00
m.xm6.msky130_fd_pr__nfet_g5v0d10v5#body = 1.129189e-11
m.xm6.msky130_fd_pr__nfet_g5v0d10v5#dbody = 2.822972e-11
m.xm6.msky130_fd_pr__nfet_g5v0d10v5#sbody = 5.645950e-12
m.xm7.msky130_fd_pr__pfet_g5v0d10v5#body = 2.300000e+00
m.xm7.msky130_fd_pr__pfet_g5v0d10v5#dbody = 2.300000e+00
m.xm7.msky130_fd_pr__pfet_g5v0d10v5#sbody = 2.300000e+00
m.xm8.msky130_fd_pr__pfet_g5v0d10v5#body = 2.300000e+00
m.xm8.msky130_fd_pr__pfet_g5v0d10v5#dbody = 2.300000e+00
m.xm8.msky130_fd_pr__pfet_g5v0d10v5#sbody = 2.300000e+00
m.xm9.msky130_fd_pr__nfet_g5v0d10v5#body = 1.902081e-11
m.xm9.msky130_fd_pr__nfet_g5v0d10v5#dbody = 4.036820e-11
m.xm9.msky130_fd_pr__nfet_g5v0d10v5#sbody = 1.669423e-11
m.xm10.msky130_fd_pr__nfet_g5v0d10v5#body = 1.892609e-11
m.xm10.msky130_fd_pr__nfet_g5v0d10v5#dbody = 4.013139e-11
m.xm10.msky130_fd_pr__nfet_g5v0d10v5#sbody = 1.664687e-11
m.xm11.msky130_fd_pr__pfet_g5v0d10v5#body = 2.300000e+00
m.xm11.msky130_fd_pr__pfet_g5v0d10v5#dbody = 2.300000e+00
m.xm11.msky130_fd_pr__pfet_g5v0d10v5#sbody = 2.300000e+00
m.xm12.msky130_fd_pr__pfet_g5v0d10v5#body = 2.300000e+00
m.xm12.msky130_fd_pr__pfet_g5v0d10v5#dbody = 2.300000e+00
m.xm12.msky130_fd_pr__pfet_g5v0d10v5#sbody = 2.300000e+00
m.xm13.msky130_fd_pr__nfet_g5v0d10v5#body = 3.590554e-12
m.xm13.msky130_fd_pr__nfet_g5v0d10v5#dbody = 8.976375e-12
m.xm13.msky130_fd_pr__nfet_g5v0d10v5#sbody = 1.795288e-12
m.xm14.msky130_fd_pr__pfet_g5v0d10v5#body = 2.300000e+00
m.xm14.msky130_fd_pr__pfet_g5v0d10v5#dbody = 2.300000e+00
m.xm14.msky130_fd_pr__pfet_g5v0d10v5#sbody = 2.300000e+00
m.xm15.msky130_fd_pr__nfet_g5v0d10v5#body = 2.442324e-16
m.xm15.msky130_fd_pr__nfet_g5v0d10v5#dbody = 6.105594e-16
m.xm15.msky130_fd_pr__nfet_g5v0d10v5#sbody = 1.221377e-16
m.xm16.msky130_fd_pr__nfet_g5v0d10v5#body = 4.397500e-11
m.xm16.msky130_fd_pr__nfet_g5v0d10v5#dbody = 7.949615e-11
m.xm16.msky130_fd_pr__nfet_g5v0d10v5#sbody = 5.242885e-11
m.xm17.msky130_fd_pr__pfet_g5v0d10v5#body = 2.300000e+00
m.xm17.msky130_fd_pr__pfet_g5v0d10v5#dbody = 2.300000e+00
m.xm17.msky130_fd_pr__pfet_g5v0d10v5#sbody = 2.300000e+00
m.xm18.msky130_fd_pr__nfet_g5v0d10v5#body = 1.139880e-11
m.xm18.msky130_fd_pr__nfet_g5v0d10v5#dbody = 2.849700e-11
m.xm18.msky130_fd_pr__nfet_g5v0d10v5#sbody = 5.699414e-12
m.xm19.msky130_fd_pr__nfet_g5v0d10v5#body = 1.838964e-11
m.xm19.msky130_fd_pr__nfet_g5v0d10v5#dbody = 3.795411e-11
m.xm19.msky130_fd_pr__nfet_g5v0d10v5#sbody = 1.721480e-11
m.xm20.msky130_fd_pr__nfet_g5v0d10v5#body = 1.131238e-11
m.xm20.msky130_fd_pr__nfet_g5v0d10v5#dbody = 2.828094e-11
m.xm20.msky130_fd_pr__nfet_g5v0d10v5#sbody = 5.656202e-12
m.xm22.msky130_fd_pr__nfet_g5v0d10v5#body = 4.012703e-12
m.xm22.msky130_fd_pr__nfet_g5v0d10v5#dbody = 1.003175e-11
m.xm22.msky130_fd_pr__nfet_g5v0d10v5#sbody = 2.006356e-12
m.xm24.msky130_fd_pr__pfet_g5v0d10v5#body = 2.300000e+00
m.xm24.msky130_fd_pr__pfet_g5v0d10v5#dbody = 2.300000e+00
m.xm24.msky130_fd_pr__pfet_g5v0d10v5#sbody = 2.300000e+00
m.xm26.msky130_fd_pr__pfet_g5v0d10v5#body = 2.300000e+00
m.xm26.msky130_fd_pr__pfet_g5v0d10v5#dbody = 2.300000e+00
m.xm26.msky130_fd_pr__pfet_g5v0d10v5#sbody = 2.300000e+00
mir = 1.148432e+00
net1 = 7.203646e-01
net2 = 1.879300e-05
net3 = 7.801858e-01
net4 = 3.204531e-01
net5 = 1.150026e+00
net6 = 9.027880e-01
net7 = 7.801724e-01
net8 = 1.226497e+00
net9 = 1.234074e+00
net10 = 2.871155e-01
net11 = 9.117754e-01
net12 = 9.117754e-01
net13 = 0.000000e+00
out = 9.117754e-01
pos = 1.189229e+00
q.xq2.qsky130_fd_pr__pnp_05v5_w0p68l0p68#collcx = 2.240612e-03
q.xq3.qsky130_fd_pr__pnp_05v5_w0p68l0p68#collcx = 2.815190e-04
q.xq4.qsky130_fd_pr__pnp_05v5_w0p68l0p68#collcx = 2.815190e-04
q.xq8.qsky130_fd_pr__pnp_05v5_w0p68l0p68#collcx = 2.815190e-04
q.xq10.qsky130_fd_pr__pnp_05v5_w0p68l0p68#collcx = 2.815190e-04
q.xq12.qsky130_fd_pr__pnp_05v5_w0p68l0p68#collcx = 2.815190e-04
q.xq14.qsky130_fd_pr__pnp_05v5_w0p68l0p68#collcx = 2.815190e-04
q.xq16.qsky130_fd_pr__pnp_05v5_w0p68l0p68#collcx = 2.815190e-04
q.xq18.qsky130_fd_pr__pnp_05v5_w0p68l0p68#collcx = 2.815190e-04
vb = 9.048615e-01
vdd = 2.300000e+00
vs#branch = -9.94954e-02
vt#branch = 0.000000e+00
xc1.a = 0.000000e+00
xc1.b1 = 0.000000e+00
xc3.a = 9.117754e-01
xc3.b1 = 9.117754e-01
xr1.xsky130_fd_pr__res_xhigh_po_0p69.ra = 7.854758e-01
xr2.xsky130_fd_pr__res_xhigh_po_0p69.ra = 7.854892e-01
xr3.xsky130_fd_pr__res_xhigh_po_0p69.ra = 3.577848e-03
xr4.xsky130_fd_pr__res_xhigh_po_0p69.ra = 7.221579e-01
xr5.xsky130_fd_pr__res_xhigh_po_0p69.ra = 3.577782e-03
xr6.xsky130_fd_pr__res_xhigh_po_0p69.ra = 5.635755e-03
xr7.xsky130_fd_pr__res_xhigh_po_0p69.ra = 9.117754e-01
xr8.xsky130_fd_pr__res_xhigh_po_0p69.ra = 1.198602e+00
xr9.xsky130_fd_pr__res_xhigh_po_0p69.ra = 9.828319e-03
Doing analysis at TEMP = 27.000000 and TNOM = 27.000000


No. of Data Rows : 91
Note: Starting true gmin stepping
Trying gmin =   1.0000E-03 Note: One successful gmin step
Trying gmin =   1.0000E-04 Note: One successful gmin step
Trying gmin =   1.0000E-05 Note: One successful gmin step
Trying gmin =   1.0000E-06 Note: One successful gmin step
Trying gmin =   1.0000E-07 Note: One successful gmin step
Trying gmin =   1.0000E-08 Warning: Further gmin increment
Trying gmin =   5.6234E-08 Note: One successful gmin step
Trying gmin =   2.3714E-08 Warning: Further gmin increment
Trying gmin =   4.5316E-08 Note: One successful gmin step
Trying gmin =   3.2781E-08 Warning: Further gmin increment
Trying gmin =   4.1792E-08 Warning: Further gmin increment
Trying gmin =   4.4408E-08 Note: One successful gmin step
Trying gmin =   4.3080E-08 Note: One successful gmin step
Trying gmin =   4.1163E-08 Warning: Further gmin increment
Trying gmin =   4.2593E-08 Warning: Further gmin increment
Trying gmin =   4.2958E-08 Note: One successful gmin step
Trying gmin =   4.2775E-08 Note: One successful gmin step
Trying gmin =   4.2502E-08 Warning: Further gmin increment
Trying gmin =   4.2706E-08 Warning: Further gmin increment
Trying gmin =   4.2758E-08 Warning: Further gmin increment
Trying gmin =   4.2770E-08 Note: One successful gmin step
Trying gmin =   4.2764E-08 Note: One successful gmin step
Trying gmin =   4.2754E-08 Warning: Further gmin increment
Trying gmin =   4.2762E-08 Warning: Further gmin increment
Trying gmin =   4.2763E-08 Note: One successful gmin step
Trying gmin =   4.2763E-08 Warning: Last gmin step failed
Warning: True gmin stepping failed
Note: Starting dynamic gmin stepping
Trying gmin =   1.0000E-03 Note: One successful gmin step
Trying gmin =   1.0000E-04 Note: One successful gmin step
Trying gmin =   1.0000E-05 Note: One successful gmin step
Trying gmin =   1.0000E-06 Note: One successful gmin step
Trying gmin =   1.0000E-07 Note: One successful gmin step
Trying gmin =   1.0000E-08 Note: One successful gmin step
Trying gmin =   1.0000E-09 Note: One successful gmin step
Trying gmin =   1.0000E-10 Note: One successful gmin step
Trying gmin =   1.0000E-11 Note: One successful gmin step
Trying gmin =   1.0000E-12 Note: One successful gmin step
Trying gmin =   1.0000E-12 Note: One successful gmin step
Note: Dynamic gmin stepping completed
 Reference value :  2.80000e+00Note: Starting true gmin stepping
Trying gmin =   1.0000E-03 Note: One successful gmin step
Trying gmin =   1.0000E-04 Note: One successful gmin step
Trying gmin =   1.0000E-05 Note: One successful gmin step
Trying gmin =   1.0000E-06 Note: One successful gmin step
Trying gmin =   1.0000E-07 Note: One successful gmin step
Trying gmin =   1.0000E-08 Note: One successful gmin step
Trying gmin =   3.1623E-09 Warning: Further gmin increment
Trying gmin =   7.4989E-09 Note: One successful gmin step
Trying gmin =   4.8697E-09 Note: One successful gmin step
Trying gmin =   2.5483E-09 Warning: Further gmin increment
Trying gmin =   4.1418E-09 Note: One successful gmin step
Trying gmin =   3.2488E-09 Note: One successful gmin step
Trying gmin =   2.2569E-09 Note: One successful gmin step
Trying gmin =   1.3068E-09 Note: One successful gmin step
Trying gmin =   5.7578E-10 Note: One successful gmin step
Trying gmin =   1.6839E-10 Note: One successful gmin step
Trying gmin =   2.6633E-11 Note: One successful gmin step
Trying gmin =   2.6633E-12 Note: One successful gmin step
Trying gmin =   1.0000E-12 Note: One successful gmin step
Note: True gmin stepping completed
Note: Starting true gmin stepping
Trying gmin =   1.0000E-03 Note: One successful gmin step
Trying gmin =   1.0000E-04 Note: One successful gmin step
Trying gmin =   1.0000E-05 Note: One successful gmin step
Trying gmin =   1.0000E-06 Note: One successful gmin step
Trying gmin =   1.0000E-07 Note: One successful gmin step
Trying gmin =   1.0000E-08 Note: One successful gmin step
Trying gmin =   3.1623E-09 Warning: Further gmin increment
Trying gmin =   7.4989E-09 Note: One successful gmin step
Trying gmin =   4.8697E-09 Note: One successful gmin step
Trying gmin =   3.1623E-09 Note: One successful gmin step
Trying gmin =   1.6548E-09 Warning: Further gmin increment
Trying gmin =   2.6896E-09 Note: One successful gmin step
Trying gmin =   2.1097E-09 Note: One successful gmin step
Trying gmin =   1.4656E-09 Note: One successful gmin step
Trying gmin =   8.4862E-10 Note: One successful gmin step
Trying gmin =   3.7390E-10 Note: One successful gmin step
Trying gmin =   1.0935E-10 Note: One successful gmin step
Trying gmin =   1.7295E-11 Note: One successful gmin step
Trying gmin =   1.7295E-12 Note: One successful gmin step
Trying gmin =   1.0000E-12 Note: One successful gmin step
Note: True gmin stepping completed
 Reference value :  1.20000e+00pm                  =  6.074382e+01
Doing analysis at TEMP = 27.000000 and TNOM = 27.000000


No. of Data Rows : 91
psrr100             =  -8.528787e+01
psrr100k            =  -2.565859e+01
Doing analysis at TEMP = 27.000000 and TNOM = 27.000000


No. of Data Rows : 86
temp_coeff = 1.079764e+02
Doing analysis at TEMP = 27.000000 and TNOM = 27.000000


No. of Data Rows : 141
vldo_sup_2          =  1.788566e+00
vldo_sup_2_8        =  1.788650e+00
line_reg = 1.050000e-04
Note: No ".plot", ".print", or ".fourier" lines; no simulations run
vin                 =  1.905864e+00
dropout = 1.418640e-01
