 Reference value :  0.00000e+00
No compatibility mode selected!


Circuit: * ldo netlist 

Doing analysis at TEMP = 27.000000 and TNOM = 27.000000


No. of Data Rows : 1
bg_out = 1.195710e+00
inn = 1.227310e+00
inp = 1.227256e+00
l1#branch = -8.67362e-19
ldo_out = 1.799220e+00
m.xm1.msky130_fd_pr__nfet_g5v0d10v5#body = 1.507936e-11
m.xm1.msky130_fd_pr__nfet_g5v0d10v5#dbody = 3.170759e-11
m.xm1.msky130_fd_pr__nfet_g5v0d10v5#sbody = 1.353047e-11
m.xm2.msky130_fd_pr__pfet_g5v0d10v5#body = 2.100000e+00
m.xm2.msky130_fd_pr__pfet_g5v0d10v5#dbody = 2.100000e+00
m.xm2.msky130_fd_pr__pfet_g5v0d10v5#sbody = 2.100000e+00
m.xm3.msky130_fd_pr__pfet_g5v0d10v5#body = 2.100000e+00
m.xm3.msky130_fd_pr__pfet_g5v0d10v5#dbody = 2.100000e+00
m.xm3.msky130_fd_pr__pfet_g5v0d10v5#sbody = 2.100000e+00
m.xm4.msky130_fd_pr__pfet_g5v0d10v5#body = 2.100000e+00
m.xm4.msky130_fd_pr__pfet_g5v0d10v5#dbody = 2.100000e+00
m.xm4.msky130_fd_pr__pfet_g5v0d10v5#sbody = 2.100000e+00
m.xm5.msky130_fd_pr__pfet_g5v0d10v5#body = 2.100000e+00
m.xm5.msky130_fd_pr__pfet_g5v0d10v5#dbody = 2.100000e+00
m.xm5.msky130_fd_pr__pfet_g5v0d10v5#sbody = 2.100000e+00
m.xm6.msky130_fd_pr__nfet_g5v0d10v5#body = 1.246231e-11
m.xm6.msky130_fd_pr__nfet_g5v0d10v5#dbody = 3.115577e-11
m.xm6.msky130_fd_pr__nfet_g5v0d10v5#sbody = 6.231160e-12
m.xm7.msky130_fd_pr__pfet_g5v0d10v5#body = 2.100000e+00
m.xm7.msky130_fd_pr__pfet_g5v0d10v5#dbody = 2.100000e+00
m.xm7.msky130_fd_pr__pfet_g5v0d10v5#sbody = 2.100000e+00
m.xm8.msky130_fd_pr__pfet_g5v0d10v5#body = 2.100000e+00
m.xm8.msky130_fd_pr__pfet_g5v0d10v5#dbody = 2.100000e+00
m.xm8.msky130_fd_pr__pfet_g5v0d10v5#sbody = 2.100000e+00
m.xm9.msky130_fd_pr__nfet_g5v0d10v5#body = 1.579866e-11
m.xm9.msky130_fd_pr__nfet_g5v0d10v5#dbody = 3.445199e-11
m.xm9.msky130_fd_pr__nfet_g5v0d10v5#sbody = 1.294399e-11
m.xm10.msky130_fd_pr__nfet_g5v0d10v5#body = 1.567463e-11
m.xm10.msky130_fd_pr__nfet_g5v0d10v5#dbody = 3.414191e-11
m.xm10.msky130_fd_pr__nfet_g5v0d10v5#sbody = 1.288198e-11
m.xm11.msky130_fd_pr__pfet_g5v0d10v5#body = 2.100000e+00
m.xm11.msky130_fd_pr__pfet_g5v0d10v5#dbody = 2.100000e+00
m.xm11.msky130_fd_pr__pfet_g5v0d10v5#sbody = 2.100000e+00
m.xm12.msky130_fd_pr__pfet_g5v0d10v5#body = 2.100000e+00
m.xm12.msky130_fd_pr__pfet_g5v0d10v5#dbody = 2.100000e+00
m.xm12.msky130_fd_pr__pfet_g5v0d10v5#sbody = 2.100000e+00
m.xm13.msky130_fd_pr__nfet_g5v0d10v5#body = 2.520975e-12
m.xm13.msky130_fd_pr__nfet_g5v0d10v5#dbody = 6.302425e-12
m.xm13.msky130_fd_pr__nfet_g5v0d10v5#sbody = 1.260498e-12
m.xm14.msky130_fd_pr__pfet_g5v0d10v5#body = 2.100000e+00
m.xm14.msky130_fd_pr__pfet_g5v0d10v5#dbody = 2.100000e+00
m.xm14.msky130_fd_pr__pfet_g5v0d10v5#sbody = 2.100000e+00
m.xm15.msky130_fd_pr__nfet_g5v0d10v5#body = 7.768621e-17
m.xm15.msky130_fd_pr__nfet_g5v0d10v5#dbody = 1.942123e-16
m.xm15.msky130_fd_pr__nfet_g5v0d10v5#sbody = 3.884629e-17
m.xm16.msky130_fd_pr__nfet_g5v0d10v5#body = 4.160013e-11
m.xm16.msky130_fd_pr__nfet_g5v0d10v5#dbody = 7.330882e-11
m.xm16.msky130_fd_pr__nfet_g5v0d10v5#sbody = 5.149157e-11
m.xm17.msky130_fd_pr__pfet_g5v0d10v5#body = 2.100000e+00
m.xm17.msky130_fd_pr__pfet_g5v0d10v5#dbody = 2.100000e+00
m.xm17.msky130_fd_pr__pfet_g5v0d10v5#sbody = 2.100000e+00
m.xm18.msky130_fd_pr__nfet_g5v0d10v5#body = 8.232892e-12
m.xm18.msky130_fd_pr__nfet_g5v0d10v5#dbody = 2.058222e-11
m.xm18.msky130_fd_pr__nfet_g5v0d10v5#sbody = 4.116458e-12
m.xm19.msky130_fd_pr__nfet_g5v0d10v5#body = 1.515474e-11
m.xm19.msky130_fd_pr__nfet_g5v0d10v5#dbody = 3.189605e-11
m.xm19.msky130_fd_pr__nfet_g5v0d10v5#sbody = 1.356816e-11
m.xm20.msky130_fd_pr__nfet_g5v0d10v5#body = 1.309615e-11
m.xm20.msky130_fd_pr__nfet_g5v0d10v5#dbody = 3.274036e-11
m.xm20.msky130_fd_pr__nfet_g5v0d10v5#sbody = 6.548088e-12
m.xm22.msky130_fd_pr__nfet_g5v0d10v5#body = 2.998109e-12
m.xm22.msky130_fd_pr__nfet_g5v0d10v5#dbody = 7.495268e-12
m.xm22.msky130_fd_pr__nfet_g5v0d10v5#sbody = 1.499060e-12
m.xm24.msky130_fd_pr__pfet_g5v0d10v5#body = 2.100000e+00
m.xm24.msky130_fd_pr__pfet_g5v0d10v5#dbody = 2.100000e+00
m.xm24.msky130_fd_pr__pfet_g5v0d10v5#sbody = 2.100000e+00
m.xm26.msky130_fd_pr__pfet_g5v0d10v5#body = 2.100000e+00
m.xm26.msky130_fd_pr__pfet_g5v0d10v5#dbody = 2.100000e+00
m.xm26.msky130_fd_pr__pfet_g5v0d10v5#sbody = 2.100000e+00
mir = 9.663666e-01
net1 = 7.274437e-01
net2 = 5.976830e-06
net3 = 7.873048e-01
net4 = 2.392816e-01
net5 = 9.723972e-01
net6 = 9.964176e-01
net7 = 7.872493e-01
net8 = 1.051942e+00
net9 = 1.061865e+00
net10 = 2.015451e-01
net11 = 6.584983e-01
net12 = 6.584983e-01
net13 = 0.000000e+00
out = 6.584983e-01
pos = 1.195816e+00
q.xq2.qsky130_fd_pr__pnp_05v5_w0p68l0p68#collcx = 2.276339e-03
q.xq3.qsky130_fd_pr__pnp_05v5_w0p68l0p68#collcx = 2.868916e-04
q.xq4.qsky130_fd_pr__pnp_05v5_w0p68l0p68#collcx = 2.868916e-04
q.xq8.qsky130_fd_pr__pnp_05v5_w0p68l0p68#collcx = 2.868916e-04
q.xq10.qsky130_fd_pr__pnp_05v5_w0p68l0p68#collcx = 2.868916e-04
q.xq12.qsky130_fd_pr__pnp_05v5_w0p68l0p68#collcx = 2.868916e-04
q.xq14.qsky130_fd_pr__pnp_05v5_w0p68l0p68#collcx = 2.868916e-04
q.xq16.qsky130_fd_pr__pnp_05v5_w0p68l0p68#collcx = 2.868916e-04
q.xq18.qsky130_fd_pr__pnp_05v5_w0p68l0p68#collcx = 2.868916e-04
vb = 1.047559e+00
vdd = 2.100000e+00
vs#branch = -1.00086e-01
vt#branch = 0.000000e+00
xc1.a = 0.000000e+00
xc1.b1 = 0.000000e+00
xc3.a = 6.584983e-01
xc3.b1 = 6.584983e-01
xr1.xsky130_fd_pr__res_xhigh_po_0p69.ra = 7.901522e-01
xr2.xsky130_fd_pr__res_xhigh_po_0p69.ra = 7.902076e-01
xr3.xsky130_fd_pr__res_xhigh_po_0p69.ra = 1.966616e-03
xr4.xsky130_fd_pr__res_xhigh_po_0p69.ra = 7.284180e-01
xr5.xsky130_fd_pr__res_xhigh_po_0p69.ra = 1.966468e-03
xr6.xsky130_fd_pr__res_xhigh_po_0p69.ra = 3.086583e-03
xr7.xsky130_fd_pr__res_xhigh_po_0p69.ra = 6.584983e-01
xr8.xsky130_fd_pr__res_xhigh_po_0p69.ra = 1.200946e+00
xr9.xsky130_fd_pr__res_xhigh_po_0p69.ra = 5.380054e-03
Doing analysis at TEMP = 27.000000 and TNOM = 27.000000


No. of Data Rows : 91
Note: Starting true gmin stepping
Trying gmin =   1.0000E-03 Note: One successful gmin step
Trying gmin =   1.0000E-04 Note: One successful gmin step
Trying gmin =   1.0000E-05 Note: One successful gmin step
Trying gmin =   1.0000E-06 Warning: Further gmin increment
Trying gmin =   5.6234E-06 Note: One successful gmin step
Trying gmin =   2.3714E-06 Note: One successful gmin step
Trying gmin =   6.4938E-07 Warning: Further gmin increment
Trying gmin =   1.7154E-06 Note: One successful gmin step
Trying gmin =   1.0554E-06 Note: One successful gmin step
Trying gmin =   5.0937E-07 Note: One successful gmin step
Trying gmin =   1.7077E-07 Note: One successful gmin step
Trying gmin =   3.3152E-08 Warning: Further gmin increment
Trying gmin =   1.1336E-07 Warning: Further gmin increment
Trying gmin =   1.5414E-07 Note: One successful gmin step
Trying gmin =   1.3219E-07 Note: One successful gmin step
Trying gmin =   1.1336E-07 Note: One successful gmin step
Trying gmin =   9.0018E-08 Note: One successful gmin step
Trying gmin =   6.3703E-08 Note: One successful gmin step
Trying gmin =   3.7923E-08 Note: One successful gmin step
Trying gmin =   1.7419E-08 Note: One successful gmin step
Trying gmin =   5.4226E-09 Note: One successful gmin step
Trying gmin =   9.4183E-10 Note: One successful gmin step
Trying gmin =   9.4183E-11 Note: One successful gmin step
Trying gmin =   9.4183E-12 Note: One successful gmin step
Trying gmin =   1.0000E-12 Note: One successful gmin step
Note: True gmin stepping completed
 Reference value :  2.80000e+00Note: Starting true gmin stepping
Trying gmin =   1.0000E-03 Note: One successful gmin step
Trying gmin =   1.0000E-04 Note: One successful gmin step
Trying gmin =   1.0000E-05 Note: One successful gmin step
Trying gmin =   1.0000E-06 Note: One successful gmin step
Trying gmin =   1.0000E-07 Note: One successful gmin step
Trying gmin =   1.0000E-08 Note: One successful gmin step
Trying gmin =   3.1623E-09 Note: One successful gmin step
Trying gmin =   5.6234E-10 Note: One successful gmin step
Trying gmin =   5.6234E-11 Warning: Further gmin increment
Trying gmin =   3.1623E-10 Note: One successful gmin step
Trying gmin =   1.3335E-10 Note: One successful gmin step
Trying gmin =   3.6517E-11 Note: One successful gmin step
Trying gmin =   1.0000E-11 Note: One successful gmin step
Trying gmin =   1.4330E-12 Note: One successful gmin step
Trying gmin =   1.0000E-12 Note: One successful gmin step
Note: True gmin stepping completed
Note: Starting true gmin stepping
Trying gmin =   1.0000E-03 Note: One successful gmin step
Trying gmin =   1.0000E-04 Note: One successful gmin step
Trying gmin =   1.0000E-05 Note: One successful gmin step
Trying gmin =   1.0000E-06 Note: One successful gmin step
Trying gmin =   1.0000E-07 Note: One successful gmin step
Trying gmin =   1.0000E-08 Note: One successful gmin step
Trying gmin =   3.1623E-09 Note: One successful gmin step
Trying gmin =   5.6234E-10 Note: One successful gmin step
Trying gmin =   5.6234E-11 Note: One successful gmin step
Trying gmin =   1.7783E-11 Note: One successful gmin step
Trying gmin =   3.1623E-12 Warning: Further gmin increment
Trying gmin =   1.1548E-11 Warning: Further gmin increment
Trying gmin =   1.5963E-11 Note: One successful gmin step
Trying gmin =   1.3577E-11 Note: One successful gmin step
Trying gmin =   1.0650E-11 Warning: Further gmin increment
Trying gmin =   1.2777E-11 Note: One successful gmin step
Trying gmin =   1.2025E-11 Note: One successful gmin step
Trying gmin =   1.0978E-11 Note: One successful gmin step
Trying gmin =   9.5764E-12 Note: One successful gmin step
Trying gmin =   7.8021E-12 Note: One successful gmin step
Trying gmin =   5.7376E-12 Note: One successful gmin step
Trying gmin =   3.6183E-12 Note: One successful gmin step
Trying gmin =   1.8120E-12 Note: One successful gmin step
Trying gmin =   1.0000E-12 Note: One successful gmin step
Note: True gmin stepping completed
 Reference value :  1.14000e+00pm                  =  1.134446e+02
Doing analysis at TEMP = 27.000000 and TNOM = 27.000000


No. of Data Rows : 91
psrr100             =  -7.098746e+01
psrr100k            =  -1.961163e+01
Doing analysis at TEMP = 27.000000 and TNOM = 27.000000


No. of Data Rows : 86
temp_coeff = 1.510893e+02
Doing analysis at TEMP = 27.000000 and TNOM = 27.000000


No. of Data Rows : 141
vldo_sup_2          =  1.799150e+00
vldo_sup_2_8        =  1.799250e+00
line_reg = 1.250000e-04
Note: No ".plot", ".print", or ".fourier" lines; no simulations run
vin                 =  1.901644e+00
dropout = 1.376440e-01
