 Reference value :  0.00000e+00
No compatibility mode selected!


Circuit: * ldo netlist 

Doing analysis at TEMP = 85.000000 and TNOM = 27.000000


No. of Data Rows : 1
bg_out = 1.196933e+00
inn = 1.143173e+00
inp = 1.143129e+00
l1#branch = 0.000000e+00
ldo_out = 1.800006e+00
m.xm1.msky130_fd_pr__nfet_g5v0d10v5#body = 2.532052e-11
m.xm1.msky130_fd_pr__nfet_g5v0d10v5#dbody = 4.458731e-11
m.xm1.msky130_fd_pr__nfet_g5v0d10v5#sbody = 3.137425e-11
m.xm2.msky130_fd_pr__pfet_g5v0d10v5#body = 2.100000e+00
m.xm2.msky130_fd_pr__pfet_g5v0d10v5#dbody = 2.100000e+00
m.xm2.msky130_fd_pr__pfet_g5v0d10v5#sbody = 2.100000e+00
m.xm3.msky130_fd_pr__pfet_g5v0d10v5#body = 2.100000e+00
m.xm3.msky130_fd_pr__pfet_g5v0d10v5#dbody = 2.100000e+00
m.xm3.msky130_fd_pr__pfet_g5v0d10v5#sbody = 2.100000e+00
m.xm4.msky130_fd_pr__pfet_g5v0d10v5#body = 2.100000e+00
m.xm4.msky130_fd_pr__pfet_g5v0d10v5#dbody = 2.100000e+00
m.xm4.msky130_fd_pr__pfet_g5v0d10v5#sbody = 2.100000e+00
m.xm5.msky130_fd_pr__pfet_g5v0d10v5#body = 2.100000e+00
m.xm5.msky130_fd_pr__pfet_g5v0d10v5#dbody = 2.100000e+00
m.xm5.msky130_fd_pr__pfet_g5v0d10v5#sbody = 2.100000e+00
m.xm6.msky130_fd_pr__nfet_g5v0d10v5#body = 1.904549e-11
m.xm6.msky130_fd_pr__nfet_g5v0d10v5#dbody = 4.761361e-11
m.xm6.msky130_fd_pr__nfet_g5v0d10v5#sbody = 9.522851e-12
m.xm7.msky130_fd_pr__pfet_g5v0d10v5#body = 2.100000e+00
m.xm7.msky130_fd_pr__pfet_g5v0d10v5#dbody = 2.100000e+00
m.xm7.msky130_fd_pr__pfet_g5v0d10v5#sbody = 2.100000e+00
m.xm8.msky130_fd_pr__pfet_g5v0d10v5#body = 2.100000e+00
m.xm8.msky130_fd_pr__pfet_g5v0d10v5#dbody = 2.100000e+00
m.xm8.msky130_fd_pr__pfet_g5v0d10v5#sbody = 2.100000e+00
m.xm9.msky130_fd_pr__nfet_g5v0d10v5#body = 2.356157e-11
m.xm9.msky130_fd_pr__nfet_g5v0d10v5#dbody = 4.285091e-11
m.xm9.msky130_fd_pr__nfet_g5v0d10v5#sbody = 2.783379e-11
m.xm10.msky130_fd_pr__nfet_g5v0d10v5#body = 2.364704e-11
m.xm10.msky130_fd_pr__nfet_g5v0d10v5#dbody = 4.306459e-11
m.xm10.msky130_fd_pr__nfet_g5v0d10v5#sbody = 2.787653e-11
m.xm11.msky130_fd_pr__pfet_g5v0d10v5#body = 2.100000e+00
m.xm11.msky130_fd_pr__pfet_g5v0d10v5#dbody = 2.100000e+00
m.xm11.msky130_fd_pr__pfet_g5v0d10v5#sbody = 2.100000e+00
m.xm12.msky130_fd_pr__pfet_g5v0d10v5#body = 2.100000e+00
m.xm12.msky130_fd_pr__pfet_g5v0d10v5#dbody = 2.100000e+00
m.xm12.msky130_fd_pr__pfet_g5v0d10v5#sbody = 2.100000e+00
m.xm13.msky130_fd_pr__nfet_g5v0d10v5#body = 6.378794e-12
m.xm13.msky130_fd_pr__nfet_g5v0d10v5#dbody = 1.594692e-11
m.xm13.msky130_fd_pr__nfet_g5v0d10v5#sbody = 3.189463e-12
m.xm14.msky130_fd_pr__pfet_g5v0d10v5#body = 2.100000e+00
m.xm14.msky130_fd_pr__pfet_g5v0d10v5#dbody = 2.100000e+00
m.xm14.msky130_fd_pr__pfet_g5v0d10v5#sbody = 2.100000e+00
m.xm15.msky130_fd_pr__nfet_g5v0d10v5#body = 4.864433e-16
m.xm15.msky130_fd_pr__nfet_g5v0d10v5#dbody = 1.216067e-15
m.xm15.msky130_fd_pr__nfet_g5v0d10v5#sbody = 2.432628e-16
m.xm16.msky130_fd_pr__nfet_g5v0d10v5#body = 5.102004e-11
m.xm16.msky130_fd_pr__nfet_g5v0d10v5#dbody = 8.849039e-11
m.xm16.msky130_fd_pr__nfet_g5v0d10v5#sbody = 6.456972e-11
m.xm17.msky130_fd_pr__pfet_g5v0d10v5#body = 2.100000e+00
m.xm17.msky130_fd_pr__pfet_g5v0d10v5#dbody = 2.100000e+00
m.xm17.msky130_fd_pr__pfet_g5v0d10v5#sbody = 2.100000e+00
m.xm18.msky130_fd_pr__nfet_g5v0d10v5#body = 5.561533e-12
m.xm18.msky130_fd_pr__nfet_g5v0d10v5#dbody = 1.390377e-11
m.xm18.msky130_fd_pr__nfet_g5v0d10v5#sbody = 2.780831e-12
m.xm19.msky130_fd_pr__nfet_g5v0d10v5#body = 2.536541e-11
m.xm19.msky130_fd_pr__nfet_g5v0d10v5#dbody = 4.469952e-11
m.xm19.msky130_fd_pr__nfet_g5v0d10v5#sbody = 3.139670e-11
m.xm20.msky130_fd_pr__nfet_g5v0d10v5#body = 1.232185e-11
m.xm20.msky130_fd_pr__nfet_g5v0d10v5#dbody = 3.080454e-11
m.xm20.msky130_fd_pr__nfet_g5v0d10v5#sbody = 6.160994e-12
m.xm22.msky130_fd_pr__nfet_g5v0d10v5#body = 1.265243e-11
m.xm22.msky130_fd_pr__nfet_g5v0d10v5#dbody = 3.163097e-11
m.xm22.msky130_fd_pr__nfet_g5v0d10v5#sbody = 6.326320e-12
m.xm24.msky130_fd_pr__pfet_g5v0d10v5#body = 2.100000e+00
m.xm24.msky130_fd_pr__pfet_g5v0d10v5#dbody = 2.100000e+00
m.xm24.msky130_fd_pr__pfet_g5v0d10v5#sbody = 2.100000e+00
m.xm26.msky130_fd_pr__pfet_g5v0d10v5#body = 2.100000e+00
m.xm26.msky130_fd_pr__pfet_g5v0d10v5#dbody = 2.100000e+00
m.xm26.msky130_fd_pr__pfet_g5v0d10v5#sbody = 2.100000e+00
mir = 8.578672e-01
net1 = 6.283730e-01
net2 = 9.408480e-07
net3 = 7.016513e-01
net4 = 3.293657e-01
net5 = 8.614580e-01
net6 = 8.407762e-01
net7 = 7.016064e-01
net8 = 9.622499e-01
net9 = 9.554122e-01
net10 = 3.547339e-01
net11 = 2.893752e-01
net12 = 2.893752e-01
net13 = 0.000000e+00
out = 2.893752e-01
pos = 1.196835e+00
q.xq2.qsky130_fd_pr__pnp_05v5_w0p68l0p68#collcx = 2.838725e-03
q.xq3.qsky130_fd_pr__pnp_05v5_w0p68l0p68#collcx = 3.581267e-04
q.xq4.qsky130_fd_pr__pnp_05v5_w0p68l0p68#collcx = 3.581267e-04
q.xq8.qsky130_fd_pr__pnp_05v5_w0p68l0p68#collcx = 3.581267e-04
q.xq10.qsky130_fd_pr__pnp_05v5_w0p68l0p68#collcx = 3.581267e-04
q.xq12.qsky130_fd_pr__pnp_05v5_w0p68l0p68#collcx = 3.581267e-04
q.xq14.qsky130_fd_pr__pnp_05v5_w0p68l0p68#collcx = 3.581267e-04
q.xq16.qsky130_fd_pr__pnp_05v5_w0p68l0p68#collcx = 3.581267e-04
q.xq18.qsky130_fd_pr__pnp_05v5_w0p68l0p68#collcx = 3.581267e-04
vb = 8.301741e-01
vdd = 2.100000e+00
vs#branch = -1.00130e-01
vt#branch = 0.000000e+00
xc1.a = 0.000000e+00
xc1.b1 = 0.000000e+00
xc3.a = 2.893752e-01
xc3.b1 = 2.893752e-01
xr1.xsky130_fd_pr__res_xhigh_po_0p69.ra = 7.098362e-01
xr2.xsky130_fd_pr__res_xhigh_po_0p69.ra = 7.098810e-01
xr3.xsky130_fd_pr__res_xhigh_po_0p69.ra = 4.908306e-03
xr4.xsky130_fd_pr__res_xhigh_po_0p69.ra = 6.317405e-01
xr5.xsky130_fd_pr__res_xhigh_po_0p69.ra = 4.907974e-03
xr6.xsky130_fd_pr__res_xhigh_po_0p69.ra = 8.713955e-03
xr7.xsky130_fd_pr__res_xhigh_po_0p69.ra = 2.893752e-01
xr8.xsky130_fd_pr__res_xhigh_po_0p69.ra = 1.211324e+00
xr9.xsky130_fd_pr__res_xhigh_po_0p69.ra = 1.519516e-02
Doing analysis at TEMP = 85.000000 and TNOM = 27.000000


No. of Data Rows : 91
Note: Starting true gmin stepping
Trying gmin =   1.0000E-03 Note: One successful gmin step
Trying gmin =   1.0000E-04 Note: One successful gmin step
Trying gmin =   1.0000E-05 Note: One successful gmin step
Trying gmin =   1.0000E-06 Note: One successful gmin step
Trying gmin =   1.0000E-07 Note: One successful gmin step
Trying gmin =   1.0000E-08 Note: One successful gmin step
Trying gmin =   1.0000E-09 Note: One successful gmin step
Trying gmin =   1.0000E-10 Note: One successful gmin step
Trying gmin =   1.0000E-11 Note: One successful gmin step
Trying gmin =   1.0000E-12 Note: One successful gmin step
Trying gmin =   1.0000E-12 Note: One successful gmin step
Note: True gmin stepping completed
 Reference value :  1.26000e+00Note: Starting true gmin stepping
Trying gmin =   1.0000E-03 Note: One successful gmin step
Trying gmin =   1.0000E-04 Note: One successful gmin step
Trying gmin =   1.0000E-05 Note: One successful gmin step
Trying gmin =   1.0000E-06 Note: One successful gmin step
Trying gmin =   1.0000E-07 Note: One successful gmin step
Trying gmin =   1.0000E-08 Note: One successful gmin step
Trying gmin =   3.1623E-09 Note: One successful gmin step
Trying gmin =   5.6234E-10 Note: One successful gmin step
Trying gmin =   5.6234E-11 Note: One successful gmin step
Trying gmin =   5.6234E-12 Note: One successful gmin step
Trying gmin =   1.0000E-12 Note: One successful gmin step
Note: True gmin stepping completed
pm                  =  9.876112e+01
Doing analysis at TEMP = 85.000000 and TNOM = 27.000000


No. of Data Rows : 91
psrr100             =  -4.155518e+01
psrr100k            =  -1.676147e+01
Doing analysis at TEMP = 85.000000 and TNOM = 27.000000


No. of Data Rows : 86
temp_coeff = 9.116258e+01
Doing analysis at TEMP = 85.000000 and TNOM = 27.000000


No. of Data Rows : 141
vldo_sup_2          =  1.771804e+00
vldo_sup_2_8        =  1.802025e+00
line_reg = 3.777625e-02
Note: No ".plot", ".print", or ".fourier" lines; no simulations run
vin                 =  1.992803e+00
dropout = 2.288030e-01
