 Reference value :  0.00000e+00
No compatibility mode selected!


Circuit: * ldo netlist 

Doing analysis at TEMP = 85.000000 and TNOM = 27.000000


No. of Data Rows : 1
bg_out = 1.197312e+00
inn = 1.140815e+00
inp = 1.140782e+00
l1#branch = 0.000000e+00
ldo_out = 1.802024e+00
m.xm1.msky130_fd_pr__nfet_g5v0d10v5#body = 2.702035e-11
m.xm1.msky130_fd_pr__nfet_g5v0d10v5#dbody = 4.930756e-11
m.xm1.msky130_fd_pr__nfet_g5v0d10v5#sbody = 3.175349e-11
m.xm2.msky130_fd_pr__pfet_g5v0d10v5#body = 2.100000e+00
m.xm2.msky130_fd_pr__pfet_g5v0d10v5#dbody = 2.100000e+00
m.xm2.msky130_fd_pr__pfet_g5v0d10v5#sbody = 2.100000e+00
m.xm3.msky130_fd_pr__pfet_g5v0d10v5#body = 2.100000e+00
m.xm3.msky130_fd_pr__pfet_g5v0d10v5#dbody = 2.100000e+00
m.xm3.msky130_fd_pr__pfet_g5v0d10v5#sbody = 2.100000e+00
m.xm4.msky130_fd_pr__pfet_g5v0d10v5#body = 2.100000e+00
m.xm4.msky130_fd_pr__pfet_g5v0d10v5#dbody = 2.100000e+00
m.xm4.msky130_fd_pr__pfet_g5v0d10v5#sbody = 2.100000e+00
m.xm5.msky130_fd_pr__pfet_g5v0d10v5#body = 2.100000e+00
m.xm5.msky130_fd_pr__pfet_g5v0d10v5#dbody = 2.100000e+00
m.xm5.msky130_fd_pr__pfet_g5v0d10v5#sbody = 2.100000e+00
m.xm6.msky130_fd_pr__nfet_g5v0d10v5#body = 1.934875e-11
m.xm6.msky130_fd_pr__nfet_g5v0d10v5#dbody = 4.837176e-11
m.xm6.msky130_fd_pr__nfet_g5v0d10v5#sbody = 9.674493e-12
m.xm7.msky130_fd_pr__pfet_g5v0d10v5#body = 2.100000e+00
m.xm7.msky130_fd_pr__pfet_g5v0d10v5#dbody = 2.100000e+00
m.xm7.msky130_fd_pr__pfet_g5v0d10v5#sbody = 2.100000e+00
m.xm8.msky130_fd_pr__pfet_g5v0d10v5#body = 2.100000e+00
m.xm8.msky130_fd_pr__pfet_g5v0d10v5#dbody = 2.100000e+00
m.xm8.msky130_fd_pr__pfet_g5v0d10v5#sbody = 2.100000e+00
m.xm9.msky130_fd_pr__nfet_g5v0d10v5#body = 2.526028e-11
m.xm9.msky130_fd_pr__nfet_g5v0d10v5#dbody = 4.754064e-11
m.xm9.msky130_fd_pr__nfet_g5v0d10v5#sbody = 2.824019e-11
m.xm10.msky130_fd_pr__nfet_g5v0d10v5#body = 2.503640e-11
m.xm10.msky130_fd_pr__nfet_g5v0d10v5#dbody = 4.698095e-11
m.xm10.msky130_fd_pr__nfet_g5v0d10v5#sbody = 2.812825e-11
m.xm11.msky130_fd_pr__pfet_g5v0d10v5#body = 2.100000e+00
m.xm11.msky130_fd_pr__pfet_g5v0d10v5#dbody = 2.100000e+00
m.xm11.msky130_fd_pr__pfet_g5v0d10v5#sbody = 2.100000e+00
m.xm12.msky130_fd_pr__pfet_g5v0d10v5#body = 2.100000e+00
m.xm12.msky130_fd_pr__pfet_g5v0d10v5#dbody = 2.100000e+00
m.xm12.msky130_fd_pr__pfet_g5v0d10v5#sbody = 2.100000e+00
m.xm13.msky130_fd_pr__nfet_g5v0d10v5#body = 6.157347e-12
m.xm13.msky130_fd_pr__nfet_g5v0d10v5#dbody = 1.539330e-11
m.xm13.msky130_fd_pr__nfet_g5v0d10v5#sbody = 3.078745e-12
m.xm14.msky130_fd_pr__pfet_g5v0d10v5#body = 2.100000e+00
m.xm14.msky130_fd_pr__pfet_g5v0d10v5#dbody = 2.100000e+00
m.xm14.msky130_fd_pr__pfet_g5v0d10v5#sbody = 2.100000e+00
m.xm15.msky130_fd_pr__nfet_g5v0d10v5#body = 3.631762e-15
m.xm15.msky130_fd_pr__nfet_g5v0d10v5#dbody = 9.079117e-15
m.xm15.msky130_fd_pr__nfet_g5v0d10v5#sbody = 1.816168e-15
m.xm16.msky130_fd_pr__nfet_g5v0d10v5#body = 5.101279e-11
m.xm16.msky130_fd_pr__nfet_g5v0d10v5#dbody = 8.850900e-11
m.xm16.msky130_fd_pr__nfet_g5v0d10v5#sbody = 6.452938e-11
m.xm17.msky130_fd_pr__pfet_g5v0d10v5#body = 2.100000e+00
m.xm17.msky130_fd_pr__pfet_g5v0d10v5#dbody = 2.100000e+00
m.xm17.msky130_fd_pr__pfet_g5v0d10v5#sbody = 2.100000e+00
m.xm18.msky130_fd_pr__nfet_g5v0d10v5#body = 2.084241e-11
m.xm18.msky130_fd_pr__nfet_g5v0d10v5#dbody = 5.208791e-11
m.xm18.msky130_fd_pr__nfet_g5v0d10v5#sbody = 1.042128e-11
m.xm19.msky130_fd_pr__nfet_g5v0d10v5#body = 2.706072e-11
m.xm19.msky130_fd_pr__nfet_g5v0d10v5#dbody = 4.940849e-11
m.xm19.msky130_fd_pr__nfet_g5v0d10v5#sbody = 3.177367e-11
m.xm20.msky130_fd_pr__nfet_g5v0d10v5#body = 1.275827e-11
m.xm20.msky130_fd_pr__nfet_g5v0d10v5#dbody = 3.189560e-11
m.xm20.msky130_fd_pr__nfet_g5v0d10v5#sbody = 6.379214e-12
m.xm22.msky130_fd_pr__nfet_g5v0d10v5#body = 1.241696e-11
m.xm22.msky130_fd_pr__nfet_g5v0d10v5#dbody = 3.104229e-11
m.xm22.msky130_fd_pr__nfet_g5v0d10v5#sbody = 6.208594e-12
m.xm24.msky130_fd_pr__pfet_g5v0d10v5#body = 2.100000e+00
m.xm24.msky130_fd_pr__pfet_g5v0d10v5#dbody = 2.100000e+00
m.xm24.msky130_fd_pr__pfet_g5v0d10v5#sbody = 2.100000e+00
m.xm26.msky130_fd_pr__pfet_g5v0d10v5#body = 2.100000e+00
m.xm26.msky130_fd_pr__pfet_g5v0d10v5#dbody = 2.100000e+00
m.xm26.msky130_fd_pr__pfet_g5v0d10v5#sbody = 2.100000e+00
mir = 1.011791e+00
net1 = 6.240938e-01
net2 = 7.020411e-06
net3 = 6.981348e-01
net4 = 3.096661e-01
net5 = 1.015021e+00
net6 = 8.641476e-01
net7 = 6.981007e-01
net8 = 1.090228e+00
net9 = 1.108138e+00
net10 = 3.361313e-01
net11 = 1.510208e+00
net12 = 1.510208e+00
net13 = 0.000000e+00
out = 1.510208e+00
pos = 1.197546e+00
q.xq2.qsky130_fd_pr__pnp_05v5_w0p68l0p68#collcx = 3.166456e-03
q.xq3.qsky130_fd_pr__pnp_05v5_w0p68l0p68#collcx = 3.985398e-04
q.xq4.qsky130_fd_pr__pnp_05v5_w0p68l0p68#collcx = 3.985398e-04
q.xq8.qsky130_fd_pr__pnp_05v5_w0p68l0p68#collcx = 3.985398e-04
q.xq10.qsky130_fd_pr__pnp_05v5_w0p68l0p68#collcx = 3.985398e-04
q.xq12.qsky130_fd_pr__pnp_05v5_w0p68l0p68#collcx = 3.985398e-04
q.xq14.qsky130_fd_pr__pnp_05v5_w0p68l0p68#collcx = 3.985398e-04
q.xq16.qsky130_fd_pr__pnp_05v5_w0p68l0p68#collcx = 3.985398e-04
q.xq18.qsky130_fd_pr__pnp_05v5_w0p68l0p68#collcx = 3.985398e-04
vb = 8.641986e-01
vdd = 2.100000e+00
vs#branch = -1.94510e-04
vt#branch = 0.000000e+00
xc1.a = 0.000000e+00
xc1.b1 = 0.000000e+00
xc3.a = 1.510208e+00
xc3.b1 = 1.510208e+00
xr1.xsky130_fd_pr__res_xhigh_po_0p69.ra = 7.012608e-01
xr2.xsky130_fd_pr__res_xhigh_po_0p69.ra = 7.012950e-01
xr3.xsky130_fd_pr__res_xhigh_po_0p69.ra = 1.873318e-03
xr4.xsky130_fd_pr__res_xhigh_po_0p69.ra = 6.253971e-01
xr5.xsky130_fd_pr__res_xhigh_po_0p69.ra = 1.873221e-03
xr6.xsky130_fd_pr__res_xhigh_po_0p69.ra = 3.345264e-03
xr7.xsky130_fd_pr__res_xhigh_po_0p69.ra = 1.510208e+00
xr8.xsky130_fd_pr__res_xhigh_po_0p69.ra = 1.203106e+00
xr9.xsky130_fd_pr__res_xhigh_po_0p69.ra = 5.830703e-03
Doing analysis at TEMP = 85.000000 and TNOM = 27.000000


No. of Data Rows : 91
Note: Starting true gmin stepping
Trying gmin =   1.0000E-03 Note: One successful gmin step
Trying gmin =   1.0000E-04 Note: One successful gmin step
Trying gmin =   1.0000E-05 Note: One successful gmin step
Trying gmin =   1.0000E-06 Note: One successful gmin step
Trying gmin =   1.0000E-07 Note: One successful gmin step
Trying gmin =   1.0000E-08 Warning: Further gmin increment
Trying gmin =   5.6234E-08 Warning: Further gmin increment
Trying gmin =   8.6596E-08 Note: One successful gmin step
Trying gmin =   6.9783E-08 Note: One successful gmin step
Trying gmin =   5.0481E-08 Warning: Further gmin increment
Trying gmin =   6.4357E-08 Note: One successful gmin step
Trying gmin =   5.6998E-08 Warning: Further gmin increment
Trying gmin =   6.2432E-08 Note: One successful gmin step
Trying gmin =   5.9653E-08 Warning: Further gmin increment
Trying gmin =   6.1726E-08 Note: One successful gmin step
Trying gmin =   6.0681E-08 Warning: Further gmin increment
Trying gmin =   6.1463E-08 Note: One successful gmin step
Trying gmin =   6.1070E-08 Note: One successful gmin step
Trying gmin =   6.0487E-08 Warning: Further gmin increment
Trying gmin =   6.0924E-08 Note: One successful gmin step
Trying gmin =   6.0705E-08 Warning: Further gmin increment
Trying gmin =   6.0869E-08 Note: One successful gmin step
Trying gmin =   6.0787E-08 Note: One successful gmin step
Trying gmin =   6.0664E-08 Warning: Further gmin increment
Trying gmin =   6.0756E-08 Warning: Further gmin increment
Trying gmin =   6.0779E-08 Note: One successful gmin step
Trying gmin =   6.0768E-08 Note: One successful gmin step
Trying gmin =   6.0750E-08 Warning: Further gmin increment
Trying gmin =   6.0763E-08 Note: One successful gmin step
Trying gmin =   6.0757E-08 Warning: Further gmin increment
Trying gmin =   6.0762E-08 Note: One successful gmin step
Trying gmin =   6.0759E-08 Note: One successful gmin step
Trying gmin =   6.0756E-08 Warning: Further gmin increment
Trying gmin =   6.0758E-08 Note: One successful gmin step
Trying gmin =   6.0757E-08 Warning: Last gmin step failed
Warning: True gmin stepping failed
Note: Starting dynamic gmin stepping
Trying gmin =   1.0000E-03 Note: One successful gmin step
Trying gmin =   1.0000E-04 Note: One successful gmin step
Trying gmin =   1.0000E-05 Warning: Further gmin increment
Trying gmin =   5.6234E-05 Note: One successful gmin step
Trying gmin =   2.3714E-05 Note: One successful gmin step
Trying gmin =   6.4938E-06 Warning: Further gmin increment
Trying gmin =   1.7154E-05 Note: One successful gmin step
Trying gmin =   1.0554E-05 Warning: Further gmin increment
Trying gmin =   1.5193E-05 Note: One successful gmin step
Trying gmin =   1.2663E-05 Note: One successful gmin step
Trying gmin =   9.6358E-06 Note: One successful gmin step
Trying gmin =   6.3960E-06 Note: One successful gmin step
Trying gmin =   3.4589E-06 Note: One successful gmin step
Trying gmin =   1.8706E-06 Warning: Further gmin increment
Trying gmin =   2.9662E-06 Warning: Further gmin increment
Trying gmin =   3.3285E-06 Note: One successful gmin step
Trying gmin =   3.1421E-06 Note: One successful gmin step
Trying gmin =   2.8819E-06 Warning: Further gmin increment
Trying gmin =   3.0750E-06 Note: One successful gmin step
Trying gmin =   2.9769E-06 Warning: Further gmin increment
Trying gmin =   3.0502E-06 Note: One successful gmin step
Trying gmin =   3.0133E-06 Note: One successful gmin step
Trying gmin =   2.9589E-06 Note: One successful gmin step
Trying gmin =   2.8790E-06 Note: One successful gmin step
Trying gmin =   2.7633E-06 Note: One successful gmin step
Trying gmin =   2.5984E-06 Note: One successful gmin step
Trying gmin =   2.3692E-06 Note: One successful gmin step
Trying gmin =   2.0629E-06 Note: One successful gmin step
Trying gmin =   1.6760E-06 Note: One successful gmin step
Trying gmin =   1.2273E-06 Note: One successful gmin step
Trying gmin =   7.6914E-07 Note: One successful gmin step
Trying gmin =   3.8157E-07 Note: One successful gmin step
Trying gmin =   1.3333E-07 Note: One successful gmin step
Trying gmin =   2.7538E-08 Note: One successful gmin step
Trying gmin =   2.7538E-09 Note: One successful gmin step
Trying gmin =   2.7538E-10 Note: One successful gmin step
Trying gmin =   2.7538E-11 Note: One successful gmin step
Trying gmin =   2.7538E-12 Note: One successful gmin step
Trying gmin =   1.0000E-12 Note: One successful gmin step
Note: Dynamic gmin stepping completed
 Reference value :  2.80000e+00Note: Starting true gmin stepping
Trying gmin =   1.0000E-03 Note: One successful gmin step
Trying gmin =   1.0000E-04 Note: One successful gmin step
Trying gmin =   1.0000E-05 Note: One successful gmin step
Trying gmin =   1.0000E-06 Note: One successful gmin step
Trying gmin =   1.0000E-07 Note: One successful gmin step
Trying gmin =   1.0000E-08 Warning: Further gmin increment
Trying gmin =   5.6234E-08 Note: One successful gmin step
Trying gmin =   2.3714E-08 Note: One successful gmin step
Trying gmin =   6.4938E-09 Note: One successful gmin step
Trying gmin =   1.7783E-09 Note: One successful gmin step
Trying gmin =   2.5483E-10 Note: One successful gmin step
Trying gmin =   2.5483E-11 Note: One successful gmin step
Trying gmin =   2.5483E-12 Note: One successful gmin step
Trying gmin =   1.0000E-12 Note: One successful gmin step
Note: True gmin stepping completed
Note: Starting true gmin stepping
Trying gmin =   1.0000E-03 Note: One successful gmin step
Trying gmin =   1.0000E-04 Note: One successful gmin step
Trying gmin =   1.0000E-05 Note: One successful gmin step
Trying gmin =   1.0000E-06 Note: One successful gmin step
Trying gmin =   1.0000E-07 Note: One successful gmin step
Trying gmin =   1.0000E-08 Warning: Further gmin increment
Trying gmin =   5.6234E-08 Note: One successful gmin step
Trying gmin =   2.3714E-08 Note: One successful gmin step
Trying gmin =   6.4938E-09 Warning: Further gmin increment
Trying gmin =   1.7154E-08 Note: One successful gmin step
Trying gmin =   1.0554E-08 Note: One successful gmin step
Trying gmin =   5.0937E-09 Note: One successful gmin step
Trying gmin =   1.7077E-09 Note: One successful gmin step
Trying gmin =   3.3152E-10 Note: One successful gmin step
Trying gmin =   3.3152E-11 Note: One successful gmin step
Trying gmin =   3.3152E-12 Note: One successful gmin step
Trying gmin =   1.0000E-12 Note: One successful gmin step
Note: True gmin stepping completed
 Reference value :  1.18000e+00pm                  =  5.881226e+01
Doing analysis at TEMP = 85.000000 and TNOM = 27.000000


No. of Data Rows : 91
psrr100             =  -4.768312e+01
psrr100k            =  -2.717083e+01
Doing analysis at TEMP = 85.000000 and TNOM = 27.000000


No. of Data Rows : 86
temp_coeff = 1.335596e+02
Doing analysis at TEMP = 85.000000 and TNOM = 27.000000


No. of Data Rows : 141
vldo_sup_2          =  1.801553e+00
vldo_sup_2_8        =  1.803648e+00
line_reg = 2.618750e-03
Note: No ".plot", ".print", or ".fourier" lines; no simulations run
vin                 =  1.764121e+00
dropout = 1.210000e-04
