 Reference value :  0.00000e+00
No compatibility mode selected!


Circuit: * ldo netlist 

Doing analysis at TEMP = 85.000000 and TNOM = 27.000000


No. of Data Rows : 1
bg_out = 1.105419e+00
inn = 1.072095e+00
inp = 1.071986e+00
l1#branch = 0.000000e+00
ldo_out = 1.817837e+00
m.xm1.msky130_fd_pr__nfet_g5v0d10v5#body = 2.880508e-11
m.xm1.msky130_fd_pr__nfet_g5v0d10v5#dbody = 5.669761e-11
m.xm1.msky130_fd_pr__nfet_g5v0d10v5#sbody = 2.971762e-11
m.xm2.msky130_fd_pr__pfet_g5v0d10v5#body = 2.500000e+00
m.xm2.msky130_fd_pr__pfet_g5v0d10v5#dbody = 2.500000e+00
m.xm2.msky130_fd_pr__pfet_g5v0d10v5#sbody = 2.500000e+00
m.xm3.msky130_fd_pr__pfet_g5v0d10v5#body = 2.500000e+00
m.xm3.msky130_fd_pr__pfet_g5v0d10v5#dbody = 2.500000e+00
m.xm3.msky130_fd_pr__pfet_g5v0d10v5#sbody = 2.500000e+00
m.xm4.msky130_fd_pr__pfet_g5v0d10v5#body = 2.500000e+00
m.xm4.msky130_fd_pr__pfet_g5v0d10v5#dbody = 2.500000e+00
m.xm4.msky130_fd_pr__pfet_g5v0d10v5#sbody = 2.500000e+00
m.xm5.msky130_fd_pr__pfet_g5v0d10v5#body = 2.500000e+00
m.xm5.msky130_fd_pr__pfet_g5v0d10v5#dbody = 2.500000e+00
m.xm5.msky130_fd_pr__pfet_g5v0d10v5#sbody = 2.500000e+00
m.xm6.msky130_fd_pr__nfet_g5v0d10v5#body = 2.041052e-11
m.xm6.msky130_fd_pr__nfet_g5v0d10v5#dbody = 5.102618e-11
m.xm6.msky130_fd_pr__nfet_g5v0d10v5#sbody = 1.020538e-11
m.xm7.msky130_fd_pr__pfet_g5v0d10v5#body = 2.500000e+00
m.xm7.msky130_fd_pr__pfet_g5v0d10v5#dbody = 2.500000e+00
m.xm7.msky130_fd_pr__pfet_g5v0d10v5#sbody = 2.500000e+00
m.xm8.msky130_fd_pr__pfet_g5v0d10v5#body = 2.500000e+00
m.xm8.msky130_fd_pr__pfet_g5v0d10v5#dbody = 2.500000e+00
m.xm8.msky130_fd_pr__pfet_g5v0d10v5#sbody = 2.500000e+00
m.xm9.msky130_fd_pr__nfet_g5v0d10v5#body = 2.702430e-11
m.xm9.msky130_fd_pr__nfet_g5v0d10v5#dbody = 5.537763e-11
m.xm9.msky130_fd_pr__nfet_g5v0d10v5#sbody = 2.569525e-11
m.xm10.msky130_fd_pr__nfet_g5v0d10v5#body = 2.662997e-11
m.xm10.msky130_fd_pr__nfet_g5v0d10v5#dbody = 5.439183e-11
m.xm10.msky130_fd_pr__nfet_g5v0d10v5#sbody = 2.549809e-11
m.xm11.msky130_fd_pr__pfet_g5v0d10v5#body = 2.500000e+00
m.xm11.msky130_fd_pr__pfet_g5v0d10v5#dbody = 2.500000e+00
m.xm11.msky130_fd_pr__pfet_g5v0d10v5#sbody = 2.500000e+00
m.xm12.msky130_fd_pr__pfet_g5v0d10v5#body = 2.500000e+00
m.xm12.msky130_fd_pr__pfet_g5v0d10v5#dbody = 2.500000e+00
m.xm12.msky130_fd_pr__pfet_g5v0d10v5#sbody = 2.500000e+00
m.xm13.msky130_fd_pr__nfet_g5v0d10v5#body = 4.448379e-12
m.xm13.msky130_fd_pr__nfet_g5v0d10v5#dbody = 1.112088e-11
m.xm13.msky130_fd_pr__nfet_g5v0d10v5#sbody = 2.224256e-12
m.xm14.msky130_fd_pr__pfet_g5v0d10v5#body = 2.500000e+00
m.xm14.msky130_fd_pr__pfet_g5v0d10v5#dbody = 2.500000e+00
m.xm14.msky130_fd_pr__pfet_g5v0d10v5#sbody = 2.500000e+00
m.xm15.msky130_fd_pr__nfet_g5v0d10v5#body = 5.893306e-14
m.xm15.msky130_fd_pr__nfet_g5v0d10v5#dbody = 1.473307e-13
m.xm15.msky130_fd_pr__nfet_g5v0d10v5#sbody = 2.946850e-14
m.xm16.msky130_fd_pr__nfet_g5v0d10v5#body = 5.525752e-11
m.xm16.msky130_fd_pr__nfet_g5v0d10v5#dbody = 1.007351e-10
m.xm16.msky130_fd_pr__nfet_g5v0d10v5#sbody = 6.503746e-11
m.xm17.msky130_fd_pr__pfet_g5v0d10v5#body = 2.500000e+00
m.xm17.msky130_fd_pr__pfet_g5v0d10v5#dbody = 2.500000e+00
m.xm17.msky130_fd_pr__pfet_g5v0d10v5#sbody = 2.500000e+00
m.xm18.msky130_fd_pr__nfet_g5v0d10v5#body = 2.450049e-11
m.xm18.msky130_fd_pr__nfet_g5v0d10v5#dbody = 6.032524e-11
m.xm18.msky130_fd_pr__nfet_g5v0d10v5#sbody = 1.225033e-11
m.xm19.msky130_fd_pr__nfet_g5v0d10v5#body = 2.897815e-11
m.xm19.msky130_fd_pr__nfet_g5v0d10v5#dbody = 5.713029e-11
m.xm19.msky130_fd_pr__nfet_g5v0d10v5#sbody = 2.980416e-11
m.xm20.msky130_fd_pr__nfet_g5v0d10v5#body = 1.441900e-11
m.xm20.msky130_fd_pr__nfet_g5v0d10v5#dbody = 3.604742e-11
m.xm20.msky130_fd_pr__nfet_g5v0d10v5#sbody = 7.209582e-12
m.xm22.msky130_fd_pr__nfet_g5v0d10v5#body = 1.094219e-11
m.xm22.msky130_fd_pr__nfet_g5v0d10v5#dbody = 2.735537e-11
m.xm22.msky130_fd_pr__nfet_g5v0d10v5#sbody = 5.471206e-12
m.xm24.msky130_fd_pr__pfet_g5v0d10v5#body = 2.500000e+00
m.xm24.msky130_fd_pr__pfet_g5v0d10v5#dbody = 2.500000e+00
m.xm24.msky130_fd_pr__pfet_g5v0d10v5#sbody = 2.500000e+00
m.xm26.msky130_fd_pr__pfet_g5v0d10v5#body = 2.500000e+00
m.xm26.msky130_fd_pr__pfet_g5v0d10v5#dbody = 2.500000e+00
m.xm26.msky130_fd_pr__pfet_g5v0d10v5#sbody = 2.500000e+00
mir = 1.267550e+00
net1 = 6.383356e-01
net2 = 1.137567e-04
net3 = 7.116799e-01
net4 = 1.897591e-01
net5 = 1.281396e+00
net6 = 9.449403e-01
net7 = 7.115696e-01
net8 = 1.350643e+00
net9 = 1.382188e+00
net10 = 1.957050e-01
net11 = 1.762391e+00
net12 = 1.762391e+00
net13 = 0.000000e+00
out = 1.762391e+00
pos = 1.105743e+00
q.xq2.qsky130_fd_pr__pnp_05v5_w0p68l0p68#collcx = 2.931546e-03
q.xq3.qsky130_fd_pr__pnp_05v5_w0p68l0p68#collcx = 3.732600e-04
q.xq4.qsky130_fd_pr__pnp_05v5_w0p68l0p68#collcx = 3.732600e-04
q.xq8.qsky130_fd_pr__pnp_05v5_w0p68l0p68#collcx = 3.732600e-04
q.xq10.qsky130_fd_pr__pnp_05v5_w0p68l0p68#collcx = 3.732600e-04
q.xq12.qsky130_fd_pr__pnp_05v5_w0p68l0p68#collcx = 3.732600e-04
q.xq14.qsky130_fd_pr__pnp_05v5_w0p68l0p68#collcx = 3.732600e-04
q.xq16.qsky130_fd_pr__pnp_05v5_w0p68l0p68#collcx = 3.732600e-04
q.xq18.qsky130_fd_pr__pnp_05v5_w0p68l0p68#collcx = 3.732600e-04
vb = 9.929080e-01
vdd = 2.500000e+00
vs#branch = -1.94828e-04
vt#branch = 0.000000e+00
xc1.a = 0.000000e+00
xc1.b1 = 0.000000e+00
xc3.a = 1.762391e+00
xc3.b1 = 1.762391e+00
xr1.xsky130_fd_pr__res_xhigh_po_0p69.ra = 7.148272e-01
xr2.xsky130_fd_pr__res_xhigh_po_0p69.ra = 7.149374e-01
xr3.xsky130_fd_pr__res_xhigh_po_0p69.ra = 2.006834e-03
xr4.xsky130_fd_pr__res_xhigh_po_0p69.ra = 6.396253e-01
xr5.xsky130_fd_pr__res_xhigh_po_0p69.ra = 2.006504e-03
xr6.xsky130_fd_pr__res_xhigh_po_0p69.ra = 3.447839e-03
xr7.xsky130_fd_pr__res_xhigh_po_0p69.ra = 1.762391e+00
xr8.xsky130_fd_pr__res_xhigh_po_0p69.ra = 1.110978e+00
xr9.xsky130_fd_pr__res_xhigh_po_0p69.ra = 5.405700e-03
Doing analysis at TEMP = 85.000000 and TNOM = 27.000000


No. of Data Rows : 91
Note: Starting true gmin stepping
Trying gmin =   1.0000E-03 Note: One successful gmin step
Trying gmin =   1.0000E-04 Note: One successful gmin step
Trying gmin =   1.0000E-05 Note: One successful gmin step
Trying gmin =   1.0000E-06 Note: One successful gmin step
Trying gmin =   1.0000E-07 Warning: Further gmin increment
Trying gmin =   5.6234E-07 Note: One successful gmin step
Trying gmin =   2.3714E-07 Note: One successful gmin step
Trying gmin =   6.4938E-08 Warning: Further gmin increment
Trying gmin =   1.7154E-07 Note: One successful gmin step
Trying gmin =   1.0554E-07 Note: One successful gmin step
Trying gmin =   8.2788E-08 Note: One successful gmin step
Trying gmin =   5.7513E-08 Warning: Further gmin increment
Trying gmin =   7.5582E-08 Warning: Further gmin increment
Trying gmin =   8.0925E-08 Note: One successful gmin step
Trying gmin =   7.8208E-08 Warning: Further gmin increment
Trying gmin =   8.0237E-08 Note: One successful gmin step
Trying gmin =   7.9216E-08 Note: One successful gmin step
Trying gmin =   7.8208E-08 Note: One successful gmin step
Trying gmin =   7.6720E-08 Note: One successful gmin step
Trying gmin =   7.4541E-08 Note: One successful gmin step
Trying gmin =   7.1387E-08 Note: One successful gmin step
Trying gmin =   6.6906E-08 Note: One successful gmin step
Trying gmin =   6.0706E-08 Note: One successful gmin step
Trying gmin =   5.2466E-08 Note: One successful gmin step
Trying gmin =   4.2155E-08 Note: One successful gmin step
Trying gmin =   3.0360E-08 Note: One successful gmin step
Trying gmin =   1.8556E-08 Note: One successful gmin step
Trying gmin =   8.8668E-09 Note: One successful gmin step
Trying gmin =   2.9287E-09 Note: One successful gmin step
Trying gmin =   5.5597E-10 Note: One successful gmin step
Trying gmin =   5.5597E-11 Note: One successful gmin step
Trying gmin =   5.5597E-12 Note: One successful gmin step
Trying gmin =   1.0000E-12 Note: One successful gmin step
Note: True gmin stepping completed
 Reference value :  2.80000e+00Note: Starting true gmin stepping
Trying gmin =   1.0000E-03 Note: One successful gmin step
Trying gmin =   1.0000E-04 Note: One successful gmin step
Trying gmin =   1.0000E-05 Note: One successful gmin step
Trying gmin =   1.0000E-06 Note: One successful gmin step
Trying gmin =   1.0000E-07 Note: One successful gmin step
Trying gmin =   1.0000E-08 Note: One successful gmin step
Trying gmin =   3.1623E-09 Warning: Further gmin increment
Trying gmin =   7.4989E-09 Note: One successful gmin step
Trying gmin =   4.8697E-09 Note: One successful gmin step
Trying gmin =   2.5483E-09 Warning: Further gmin increment
Trying gmin =   4.1418E-09 Note: One successful gmin step
Trying gmin =   3.2488E-09 Note: One successful gmin step
Trying gmin =   2.2569E-09 Note: One successful gmin step
Trying gmin =   1.3068E-09 Note: One successful gmin step
Trying gmin =   5.7578E-10 Note: One successful gmin step
Trying gmin =   1.6839E-10 Note: One successful gmin step
Trying gmin =   2.6633E-11 Note: One successful gmin step
Trying gmin =   2.6633E-12 Note: One successful gmin step
Trying gmin =   1.0000E-12 Note: One successful gmin step
Note: True gmin stepping completed
Note: Starting true gmin stepping
Trying gmin =   1.0000E-03 Note: One successful gmin step
Trying gmin =   1.0000E-04 Note: One successful gmin step
Trying gmin =   1.0000E-05 Note: One successful gmin step
Trying gmin =   1.0000E-06 Note: One successful gmin step
Trying gmin =   1.0000E-07 Note: One successful gmin step
Trying gmin =   1.0000E-08 Warning: Further gmin increment
Trying gmin =   5.6234E-08 Note: One successful gmin step
Trying gmin =   2.3714E-08 Note: One successful gmin step
Trying gmin =   6.4938E-09 Note: One successful gmin step
Trying gmin =   9.3057E-10 Warning: Further gmin increment
Trying gmin =   3.9954E-09 Note: One successful gmin step
Trying gmin =   1.9282E-09 Warning: Further gmin increment
Trying gmin =   3.3301E-09 Note: One successful gmin step
Trying gmin =   2.5340E-09 Note: One successful gmin step
Trying gmin =   1.6820E-09 Note: One successful gmin step
Trying gmin =   9.0962E-10 Note: One successful gmin step
Trying gmin =   3.6175E-10 Note: One successful gmin step
Trying gmin =   9.0726E-11 Note: One successful gmin step
Trying gmin =   1.1395E-11 Note: One successful gmin step
Trying gmin =   1.1395E-12 Note: One successful gmin step
Trying gmin =   1.0000E-12 Note: One successful gmin step
Note: True gmin stepping completed
 Reference value :  1.28000e+00pm                  =  6.204527e+01
Doing analysis at TEMP = 85.000000 and TNOM = 27.000000


No. of Data Rows : 91
psrr100             =  -5.348368e+01
psrr100k            =  -2.452835e+01
Doing analysis at TEMP = 85.000000 and TNOM = 27.000000


No. of Data Rows : 86
temp_coeff = 7.831946e+01
Doing analysis at TEMP = 85.000000 and TNOM = 27.000000


No. of Data Rows : 141
vldo_sup_2          =  1.816017e+00
vldo_sup_2_8        =  1.818356e+00
line_reg = 2.923750e-03
Note: No ".plot", ".print", or ".fourier" lines; no simulations run
vin                 =  1.764171e+00
dropout = 1.710000e-04
