 Reference value :  0.00000e+00
No compatibility mode selected!


Circuit: * ldo netlist 

Doing analysis at TEMP = 27.000000 and TNOM = 27.000000


No. of Data Rows : 1
bg_out = 1.195663e+00
inn = 1.228643e+00
inp = 1.228580e+00
l1#branch = 0.000000e+00
ldo_out = 1.797966e+00
m.xm1.msky130_fd_pr__nfet_g5v0d10v5#body = 1.340778e-11
m.xm1.msky130_fd_pr__nfet_g5v0d10v5#dbody = 2.709014e-11
m.xm1.msky130_fd_pr__nfet_g5v0d10v5#sbody = 1.313320e-11
m.xm2.msky130_fd_pr__pfet_g5v0d10v5#body = 2.100000e+00
m.xm2.msky130_fd_pr__pfet_g5v0d10v5#dbody = 2.100000e+00
m.xm2.msky130_fd_pr__pfet_g5v0d10v5#sbody = 2.100000e+00
m.xm3.msky130_fd_pr__pfet_g5v0d10v5#body = 2.100000e+00
m.xm3.msky130_fd_pr__pfet_g5v0d10v5#dbody = 2.100000e+00
m.xm3.msky130_fd_pr__pfet_g5v0d10v5#sbody = 2.100000e+00
m.xm4.msky130_fd_pr__pfet_g5v0d10v5#body = 2.100000e+00
m.xm4.msky130_fd_pr__pfet_g5v0d10v5#dbody = 2.100000e+00
m.xm4.msky130_fd_pr__pfet_g5v0d10v5#sbody = 2.100000e+00
m.xm5.msky130_fd_pr__pfet_g5v0d10v5#body = 2.100000e+00
m.xm5.msky130_fd_pr__pfet_g5v0d10v5#dbody = 2.100000e+00
m.xm5.msky130_fd_pr__pfet_g5v0d10v5#sbody = 2.100000e+00
m.xm6.msky130_fd_pr__nfet_g5v0d10v5#body = 1.218452e-11
m.xm6.msky130_fd_pr__nfet_g5v0d10v5#dbody = 3.046129e-11
m.xm6.msky130_fd_pr__nfet_g5v0d10v5#sbody = 6.092264e-12
m.xm7.msky130_fd_pr__pfet_g5v0d10v5#body = 2.100000e+00
m.xm7.msky130_fd_pr__pfet_g5v0d10v5#dbody = 2.100000e+00
m.xm7.msky130_fd_pr__pfet_g5v0d10v5#sbody = 2.100000e+00
m.xm8.msky130_fd_pr__pfet_g5v0d10v5#body = 2.100000e+00
m.xm8.msky130_fd_pr__pfet_g5v0d10v5#dbody = 2.100000e+00
m.xm8.msky130_fd_pr__pfet_g5v0d10v5#sbody = 2.100000e+00
m.xm9.msky130_fd_pr__nfet_g5v0d10v5#body = 1.410646e-11
m.xm9.msky130_fd_pr__nfet_g5v0d10v5#dbody = 2.980724e-11
m.xm9.msky130_fd_pr__nfet_g5v0d10v5#sbody = 1.251215e-11
m.xm10.msky130_fd_pr__nfet_g5v0d10v5#body = 1.392995e-11
m.xm10.msky130_fd_pr__nfet_g5v0d10v5#dbody = 2.936597e-11
m.xm10.msky130_fd_pr__nfet_g5v0d10v5#sbody = 1.242389e-11
m.xm11.msky130_fd_pr__pfet_g5v0d10v5#body = 2.100000e+00
m.xm11.msky130_fd_pr__pfet_g5v0d10v5#dbody = 2.100000e+00
m.xm11.msky130_fd_pr__pfet_g5v0d10v5#sbody = 2.100000e+00
m.xm12.msky130_fd_pr__pfet_g5v0d10v5#body = 2.100000e+00
m.xm12.msky130_fd_pr__pfet_g5v0d10v5#dbody = 2.100000e+00
m.xm12.msky130_fd_pr__pfet_g5v0d10v5#sbody = 2.100000e+00
m.xm13.msky130_fd_pr__nfet_g5v0d10v5#body = 2.728100e-12
m.xm13.msky130_fd_pr__nfet_g5v0d10v5#dbody = 6.820240e-12
m.xm13.msky130_fd_pr__nfet_g5v0d10v5#sbody = 1.364060e-12
m.xm14.msky130_fd_pr__pfet_g5v0d10v5#body = 2.100000e+00
m.xm14.msky130_fd_pr__pfet_g5v0d10v5#dbody = 2.100000e+00
m.xm14.msky130_fd_pr__pfet_g5v0d10v5#sbody = 2.100000e+00
m.xm15.msky130_fd_pr__nfet_g5v0d10v5#body = 6.619449e-18
m.xm15.msky130_fd_pr__nfet_g5v0d10v5#dbody = 1.654831e-17
m.xm15.msky130_fd_pr__nfet_g5v0d10v5#sbody = 3.310035e-18
m.xm16.msky130_fd_pr__nfet_g5v0d10v5#body = 4.161677e-11
m.xm16.msky130_fd_pr__nfet_g5v0d10v5#dbody = 7.331712e-11
m.xm16.msky130_fd_pr__nfet_g5v0d10v5#sbody = 5.153320e-11
m.xm17.msky130_fd_pr__pfet_g5v0d10v5#body = 2.100000e+00
m.xm17.msky130_fd_pr__pfet_g5v0d10v5#dbody = 2.100000e+00
m.xm17.msky130_fd_pr__pfet_g5v0d10v5#sbody = 2.100000e+00
m.xm18.msky130_fd_pr__nfet_g5v0d10v5#body = 1.149826e-11
m.xm18.msky130_fd_pr__nfet_g5v0d10v5#dbody = 2.874564e-11
m.xm18.msky130_fd_pr__nfet_g5v0d10v5#sbody = 5.749143e-12
m.xm19.msky130_fd_pr__nfet_g5v0d10v5#body = 1.348433e-11
m.xm19.msky130_fd_pr__nfet_g5v0d10v5#dbody = 2.728150e-11
m.xm19.msky130_fd_pr__nfet_g5v0d10v5#sbody = 1.317148e-11
m.xm20.msky130_fd_pr__nfet_g5v0d10v5#body = 1.275351e-11
m.xm20.msky130_fd_pr__nfet_g5v0d10v5#dbody = 3.188375e-11
m.xm20.msky130_fd_pr__nfet_g5v0d10v5#sbody = 6.376765e-12
m.xm22.msky130_fd_pr__nfet_g5v0d10v5#body = 3.217369e-12
m.xm22.msky130_fd_pr__nfet_g5v0d10v5#dbody = 8.043418e-12
m.xm22.msky130_fd_pr__nfet_g5v0d10v5#sbody = 1.608689e-12
m.xm24.msky130_fd_pr__pfet_g5v0d10v5#body = 2.100000e+00
m.xm24.msky130_fd_pr__pfet_g5v0d10v5#dbody = 2.100000e+00
m.xm24.msky130_fd_pr__pfet_g5v0d10v5#sbody = 2.100000e+00
m.xm26.msky130_fd_pr__pfet_g5v0d10v5#body = 2.100000e+00
m.xm26.msky130_fd_pr__pfet_g5v0d10v5#dbody = 2.100000e+00
m.xm26.msky130_fd_pr__pfet_g5v0d10v5#sbody = 2.100000e+00
mir = 8.151005e-01
net1 = 7.305821e-01
net2 = 5.092818e-07
net3 = 7.898281e-01
net4 = 2.568231e-01
net5 = 8.212242e-01
net6 = 9.741950e-01
net7 = 7.897628e-01
net8 = 8.957989e-01
net9 = 9.099196e-01
net10 = 2.181158e-01
net11 = 9.197287e-01
net12 = 9.197287e-01
net13 = 0.000000e+00
out = 9.197287e-01
pos = 1.195826e+00
q.xq2.qsky130_fd_pr__pnp_05v5_w0p68l0p68#collcx = 1.950983e-03
q.xq3.qsky130_fd_pr__pnp_05v5_w0p68l0p68#collcx = 2.472352e-04
q.xq4.qsky130_fd_pr__pnp_05v5_w0p68l0p68#collcx = 2.472352e-04
q.xq8.qsky130_fd_pr__pnp_05v5_w0p68l0p68#collcx = 2.472352e-04
q.xq10.qsky130_fd_pr__pnp_05v5_w0p68l0p68#collcx = 2.472352e-04
q.xq12.qsky130_fd_pr__pnp_05v5_w0p68l0p68#collcx = 2.472352e-04
q.xq14.qsky130_fd_pr__pnp_05v5_w0p68l0p68#collcx = 2.472352e-04
q.xq16.qsky130_fd_pr__pnp_05v5_w0p68l0p68#collcx = 2.472352e-04
q.xq18.qsky130_fd_pr__pnp_05v5_w0p68l0p68#collcx = 2.472352e-04
vb = 1.020148e+00
vdd = 2.100000e+00
vs#branch = -1.01089e-02
vt#branch = 0.000000e+00
xc1.a = 0.000000e+00
xc1.b1 = 0.000000e+00
xc3.a = 9.197287e-01
xc3.b1 = 9.197287e-01
xr1.xsky130_fd_pr__res_xhigh_po_0p69.ra = 7.973284e-01
xr2.xsky130_fd_pr__res_xhigh_po_0p69.ra = 7.973937e-01
xr3.xsky130_fd_pr__res_xhigh_po_0p69.ra = 5.144491e-03
xr4.xsky130_fd_pr__res_xhigh_po_0p69.ra = 7.331049e-01
xr5.xsky130_fd_pr__res_xhigh_po_0p69.ra = 5.144037e-03
xr6.xsky130_fd_pr__res_xhigh_po_0p69.ra = 8.045315e-03
xr7.xsky130_fd_pr__res_xhigh_po_0p69.ra = 9.197287e-01
xr8.xsky130_fd_pr__res_xhigh_po_0p69.ra = 1.209210e+00
xr9.xsky130_fd_pr__res_xhigh_po_0p69.ra = 1.403832e-02
Doing analysis at TEMP = 27.000000 and TNOM = 27.000000


No. of Data Rows : 91
Note: Starting true gmin stepping
Trying gmin =   1.0000E-03 Note: One successful gmin step
Trying gmin =   1.0000E-04 Note: One successful gmin step
Trying gmin =   1.0000E-05 Note: One successful gmin step
Trying gmin =   1.0000E-06 Note: One successful gmin step
Trying gmin =   1.0000E-07 Warning: Further gmin increment
Trying gmin =   5.6234E-07 Note: One successful gmin step
Trying gmin =   2.3714E-07 Note: One successful gmin step
Trying gmin =   6.4938E-08 Warning: Further gmin increment
Trying gmin =   1.7154E-07 Warning: Further gmin increment
Trying gmin =   2.1870E-07 Note: One successful gmin step
Trying gmin =   1.9369E-07 Warning: Further gmin increment
Trying gmin =   2.1216E-07 Note: One successful gmin step
Trying gmin =   2.0271E-07 Warning: Further gmin increment
Trying gmin =   2.0976E-07 Note: One successful gmin step
Trying gmin =   2.0621E-07 Warning: Further gmin increment
Trying gmin =   2.0886E-07 Warning: Further gmin increment
Trying gmin =   2.0953E-07 Note: One successful gmin step
Trying gmin =   2.0920E-07 Warning: Further gmin increment
Trying gmin =   2.0945E-07 Warning: Further gmin increment
Trying gmin =   2.0951E-07 Note: One successful gmin step
Trying gmin =   2.0948E-07 Note: One successful gmin step
Trying gmin =   2.0943E-07 Warning: Further gmin increment
Trying gmin =   2.0947E-07 Warning: Further gmin increment
Trying gmin =   2.0948E-07 Warning: Last gmin step failed
Warning: True gmin stepping failed
Note: Starting dynamic gmin stepping
Trying gmin =   1.0000E-03 Note: One successful gmin step
Trying gmin =   1.0000E-04 Note: One successful gmin step
Trying gmin =   1.0000E-05 Note: One successful gmin step
Trying gmin =   1.0000E-06 Note: One successful gmin step
Trying gmin =   3.1623E-07 Warning: Further gmin increment
Trying gmin =   7.4989E-07 Warning: Further gmin increment
Trying gmin =   9.3057E-07 Note: One successful gmin step
Trying gmin =   8.3536E-07 Note: One successful gmin step
Trying gmin =   7.1050E-07 Note: One successful gmin step
Trying gmin =   5.5731E-07 Note: One successful gmin step
Trying gmin =   3.8716E-07 Note: One successful gmin step
Trying gmin =   2.2417E-07 Note: One successful gmin step
Trying gmin =   9.8771E-08 Note: One successful gmin step
Trying gmin =   2.8886E-08 Note: One successful gmin step
Trying gmin =   4.5687E-09 Note: One successful gmin step
Trying gmin =   4.5687E-10 Note: One successful gmin step
Trying gmin =   4.5687E-11 Note: One successful gmin step
Trying gmin =   4.5687E-12 Note: One successful gmin step
Trying gmin =   1.0000E-12 Note: One successful gmin step
Note: Dynamic gmin stepping completed
 Reference value :  8.50000e+01Note: Starting true gmin stepping
Trying gmin =   1.0000E-03 Note: One successful gmin step
Trying gmin =   1.0000E-04 Note: One successful gmin step
Trying gmin =   1.0000E-05 Note: One successful gmin step
Trying gmin =   1.0000E-06 Note: One successful gmin step
Trying gmin =   1.0000E-07 Note: One successful gmin step
Trying gmin =   1.0000E-08 Warning: Further gmin increment
Trying gmin =   5.6234E-08 Warning: Further gmin increment
Trying gmin =   8.6596E-08 Note: One successful gmin step
Trying gmin =   6.9783E-08 Note: One successful gmin step
Trying gmin =   5.0481E-08 Warning: Further gmin increment
Trying gmin =   6.4357E-08 Warning: Further gmin increment
Trying gmin =   6.8385E-08 Note: One successful gmin step
Trying gmin =   6.6340E-08 Note: One successful gmin step
Trying gmin =   6.3387E-08 Warning: Further gmin increment
Trying gmin =   6.5589E-08 Warning: Further gmin increment
Trying gmin =   6.6152E-08 Note: One successful gmin step
Trying gmin =   6.5870E-08 Note: One successful gmin step
Trying gmin =   6.5450E-08 Warning: Further gmin increment
Trying gmin =   6.5765E-08 Note: One successful gmin step
Trying gmin =   6.5607E-08 Warning: Further gmin increment
Trying gmin =   6.5725E-08 Note: One successful gmin step
Trying gmin =   6.5666E-08 Warning: Further gmin increment
Trying gmin =   6.5710E-08 Warning: Further gmin increment
Trying gmin =   6.5721E-08 Note: One successful gmin step
Trying gmin =   6.5716E-08 Warning: Further gmin increment
Trying gmin =   6.5720E-08 Note: One successful gmin step
Trying gmin =   6.5718E-08 Warning: Last gmin step failed
Warning: True gmin stepping failed
Note: Starting dynamic gmin stepping
Trying gmin =   1.0000E-03 Note: One successful gmin step
Trying gmin =   1.0000E-04 Note: One successful gmin step
Trying gmin =   1.0000E-05 Warning: Further gmin increment
Trying gmin =   5.6234E-05 Note: One successful gmin step
Trying gmin =   2.3714E-05 Note: One successful gmin step
Trying gmin =   6.4938E-06 Warning: Further gmin increment
Trying gmin =   1.7154E-05 Note: One successful gmin step
Trying gmin =   1.0554E-05 Warning: Further gmin increment
Trying gmin =   1.5193E-05 Note: One successful gmin step
Trying gmin =   1.2663E-05 Note: One successful gmin step
Trying gmin =   9.6358E-06 Warning: Further gmin increment
Trying gmin =   1.1827E-05 Note: One successful gmin step
Trying gmin =   1.0675E-05 Note: One successful gmin step
Trying gmin =   9.1546E-06 Note: One successful gmin step
Trying gmin =   7.2699E-06 Note: One successful gmin step
Trying gmin =   5.1447E-06 Note: One successful gmin step
Trying gmin =   3.0627E-06 Warning: Further gmin increment
Trying gmin =   4.5190E-06 Note: One successful gmin step
Trying gmin =   3.9694E-06 Note: One successful gmin step
Trying gmin =   3.2678E-06 Note: One successful gmin step
Trying gmin =   2.4409E-06 Note: One successful gmin step
Trying gmin =   1.5758E-06 Note: One successful gmin step
Trying gmin =   8.1735E-07 Warning: Further gmin increment
Trying gmin =   1.3373E-06 Warning: Further gmin increment
Trying gmin =   1.5124E-06 Note: One successful gmin step
Trying gmin =   1.4222E-06 Note: One successful gmin step
Trying gmin =   1.2968E-06 Note: One successful gmin step
Trying gmin =   1.1291E-06 Note: One successful gmin step
Trying gmin =   9.1732E-07 Note: One successful gmin step
Trying gmin =   6.7176E-07 Note: One successful gmin step
Trying gmin =   4.2098E-07 Note: One successful gmin step
Trying gmin =   2.0884E-07 Note: One successful gmin step
Trying gmin =   7.2974E-08 Note: One successful gmin step
Trying gmin =   1.5073E-08 Note: One successful gmin step
Trying gmin =   1.5073E-09 Note: One successful gmin step
Trying gmin =   1.5073E-10 Note: One successful gmin step
Trying gmin =   1.5073E-11 Note: One successful gmin step
Trying gmin =   1.5073E-12 Note: One successful gmin step
Trying gmin =   1.0000E-12 Note: One successful gmin step
Note: Dynamic gmin stepping completed
 Reference value :  2.80000e+00Note: Starting true gmin stepping
Trying gmin =   1.0000E-03 Note: One successful gmin step
Trying gmin =   1.0000E-04 Note: One successful gmin step
Trying gmin =   1.0000E-05 Note: One successful gmin step
Trying gmin =   1.0000E-06 Note: One successful gmin step
Trying gmin =   1.0000E-07 Note: One successful gmin step
Trying gmin =   1.0000E-08 Note: One successful gmin step
Trying gmin =   1.0000E-09 Warning: Further gmin increment
Trying gmin =   5.6234E-09 Note: One successful gmin step
Trying gmin =   2.3714E-09 Note: One successful gmin step
Trying gmin =   6.4938E-10 Warning: Further gmin increment
Trying gmin =   1.7154E-09 Note: One successful gmin step
Trying gmin =   1.0554E-09 Note: One successful gmin step
Trying gmin =   8.2788E-10 Note: One successful gmin step
Trying gmin =   5.7513E-10 Note: One successful gmin step
Trying gmin =   3.3301E-10 Note: One successful gmin step
Trying gmin =   1.4672E-10 Warning: Further gmin increment
Trying gmin =   2.7131E-10 Warning: Further gmin increment
Trying gmin =   3.1638E-10 Warning: Further gmin increment
Trying gmin =   3.2878E-10 Warning: Further gmin increment
Trying gmin =   3.3195E-10 Note: One successful gmin step
Trying gmin =   3.3036E-10 Note: One successful gmin step
Trying gmin =   3.2799E-10 Warning: Further gmin increment
Trying gmin =   3.2976E-10 Note: One successful gmin step
Trying gmin =   3.2887E-10 Warning: Further gmin increment
Trying gmin =   3.2954E-10 Note: One successful gmin step
Trying gmin =   3.2921E-10 Note: One successful gmin step
Trying gmin =   3.2871E-10 Note: One successful gmin step
Trying gmin =   3.2796E-10 Note: One successful gmin step
Trying gmin =   3.2684E-10 Note: One successful gmin step
Trying gmin =   3.2517E-10 Note: One successful gmin step
Trying gmin =   3.2268E-10 Note: One successful gmin step
Trying gmin =   3.1897E-10 Note: One successful gmin step
Trying gmin =   3.1350E-10 Note: One successful gmin step
Trying gmin =   3.0547E-10 Note: One successful gmin step
Trying gmin =   2.9380E-10 Note: One successful gmin step
Trying gmin =   2.7713E-10 Note: One successful gmin step
Trying gmin =   2.5388E-10 Note: One successful gmin step
Trying gmin =   2.2261E-10 Note: One successful gmin step
Trying gmin =   1.8278E-10 Note: One successful gmin step
Trying gmin =   1.3598E-10 Note: One successful gmin step
Trying gmin =   8.7264E-11 Note: One successful gmin step
Trying gmin =   4.4860E-11 Note: One successful gmin step
Trying gmin =   1.6535E-11 Note: One successful gmin step
Trying gmin =   3.7000E-12 Note: One successful gmin step
Trying gmin =   1.0000E-12 Note: One successful gmin step
Note: True gmin stepping completed
 Reference value :  1.32000e+00Note: Starting true gmin stepping
Trying gmin =   1.0000E-03 Note: One successful gmin step
Trying gmin =   1.0000E-04 Note: One successful gmin step
Trying gmin =   1.0000E-05 Note: One successful gmin step
Trying gmin =   1.0000E-06 Note: One successful gmin step
Trying gmin =   1.0000E-07 Note: One successful gmin step
Trying gmin =   1.0000E-08 Note: One successful gmin step
Trying gmin =   1.0000E-09 Note: One successful gmin step
Trying gmin =   1.0000E-10 Warning: Further gmin increment
Trying gmin =   5.6234E-10 Note: One successful gmin step
Trying gmin =   2.3714E-10 Warning: Further gmin increment
Trying gmin =   4.5316E-10 Note: One successful gmin step
Trying gmin =   3.2781E-10 Note: One successful gmin step
Trying gmin =   2.0169E-10 Warning: Further gmin increment
Trying gmin =   2.9033E-10 Note: One successful gmin step
Trying gmin =   2.4199E-10 Warning: Further gmin increment
Trying gmin =   2.7741E-10 Note: One successful gmin step
Trying gmin =   2.5909E-10 Note: One successful gmin step
Trying gmin =   2.3386E-10 Warning: Further gmin increment
Trying gmin =   2.5254E-10 Note: One successful gmin step
Trying gmin =   2.4302E-10 Note: One successful gmin step
Trying gmin =   2.3386E-10 Note: One successful gmin step
Trying gmin =   2.2076E-10 Note: One successful gmin step
Trying gmin =   2.0248E-10 Note: One successful gmin step
Trying gmin =   1.7786E-10 Note: One successful gmin step
Trying gmin =   1.4642E-10 Note: One successful gmin step
Trying gmin =   1.0937E-10 Note: One successful gmin step
Trying gmin =   7.0606E-11 Note: One successful gmin step
Trying gmin =   3.6623E-11 Note: One successful gmin step
Trying gmin =   1.3681E-11 Note: One successful gmin step
Trying gmin =   3.1237E-12 Note: One successful gmin step
Trying gmin =   1.0000E-12 Note: One successful gmin step
Note: True gmin stepping completed
 Reference value :  1.30000e+00Note: Starting true gmin stepping
Trying gmin =   1.0000E-03 Note: One successful gmin step
Trying gmin =   1.0000E-04 Note: One successful gmin step
Trying gmin =   1.0000E-05 Note: One successful gmin step
Trying gmin =   1.0000E-06 Note: One successful gmin step
Trying gmin =   1.0000E-07 Note: One successful gmin step
Trying gmin =   1.0000E-08 Note: One successful gmin step
Trying gmin =   1.0000E-09 Note: One successful gmin step
Trying gmin =   1.0000E-10 Note: One successful gmin step
Trying gmin =   1.0000E-11 Note: One successful gmin step
Trying gmin =   1.0000E-12 Note: One successful gmin step
Trying gmin =   1.0000E-12 Warning: Last gmin step failed
Warning: True gmin stepping failed
Note: Starting dynamic gmin stepping
Trying gmin =   1.0000E-03 Note: One successful gmin step
Trying gmin =   1.0000E-04 Note: One successful gmin step
Trying gmin =   1.0000E-05 Note: One successful gmin step
Trying gmin =   1.0000E-06 Note: One successful gmin step
Trying gmin =   1.0000E-07 Note: One successful gmin step
Trying gmin =   1.0000E-08 Note: One successful gmin step
Trying gmin =   1.0000E-09 Note: One successful gmin step
Trying gmin =   1.0000E-10 Note: One successful gmin step
Trying gmin =   1.0000E-11 Note: One successful gmin step
Trying gmin =   1.0000E-12 Note: One successful gmin step
Trying gmin =   1.0000E-12 Note: One successful gmin step
Note: Dynamic gmin stepping completed
 Reference value :  1.20000e-01pm                  =  -7.448509e+01
Doing analysis at TEMP = 27.000000 and TNOM = 27.000000


No. of Data Rows : 91
psrr100             =  -6.624235e+01
psrr100k            =  -2.483105e+01
Doing analysis at TEMP = 27.000000 and TNOM = 27.000000


No. of Data Rows : 86
temp_coeff = 1.020239e+02
Doing analysis at TEMP = 27.000000 and TNOM = 27.000000


No. of Data Rows : 141
vldo_sup_2          =  1.797890e+00
vldo_sup_2_8        =  1.798036e+00
line_reg = 1.825000e-04
Note: No ".plot", ".print", or ".fourier" lines; no simulations run
vin                 =  1.785405e+00
dropout = 2.140500e-02
