 Reference value :  0.00000e+00
No compatibility mode selected!


Circuit: * ldo netlist 

Doing analysis at TEMP = 85.000000 and TNOM = 27.000000


No. of Data Rows : 1
bg_out = 1.197767e+00
inn = 1.140884e+00
inp = 1.140866e+00
l1#branch = 0.000000e+00
ldo_out = 1.802593e+00
m.xm1.msky130_fd_pr__nfet_g5v0d10v5#body = 2.954993e-11
m.xm1.msky130_fd_pr__nfet_g5v0d10v5#dbody = 5.560468e-11
m.xm1.msky130_fd_pr__nfet_g5v0d10v5#sbody = 3.304512e-11
m.xm2.msky130_fd_pr__pfet_g5v0d10v5#body = 2.300000e+00
m.xm2.msky130_fd_pr__pfet_g5v0d10v5#dbody = 2.300000e+00
m.xm2.msky130_fd_pr__pfet_g5v0d10v5#sbody = 2.300000e+00
m.xm3.msky130_fd_pr__pfet_g5v0d10v5#body = 2.300000e+00
m.xm3.msky130_fd_pr__pfet_g5v0d10v5#dbody = 2.300000e+00
m.xm3.msky130_fd_pr__pfet_g5v0d10v5#sbody = 2.300000e+00
m.xm4.msky130_fd_pr__pfet_g5v0d10v5#body = 2.300000e+00
m.xm4.msky130_fd_pr__pfet_g5v0d10v5#dbody = 2.300000e+00
m.xm4.msky130_fd_pr__pfet_g5v0d10v5#sbody = 2.300000e+00
m.xm5.msky130_fd_pr__pfet_g5v0d10v5#body = 2.300000e+00
m.xm5.msky130_fd_pr__pfet_g5v0d10v5#dbody = 2.300000e+00
m.xm5.msky130_fd_pr__pfet_g5v0d10v5#sbody = 2.300000e+00
m.xm6.msky130_fd_pr__nfet_g5v0d10v5#body = 1.934764e-11
m.xm6.msky130_fd_pr__nfet_g5v0d10v5#dbody = 4.836897e-11
m.xm6.msky130_fd_pr__nfet_g5v0d10v5#sbody = 9.673935e-12
m.xm7.msky130_fd_pr__pfet_g5v0d10v5#body = 2.300000e+00
m.xm7.msky130_fd_pr__pfet_g5v0d10v5#dbody = 2.300000e+00
m.xm7.msky130_fd_pr__pfet_g5v0d10v5#sbody = 2.300000e+00
m.xm8.msky130_fd_pr__pfet_g5v0d10v5#body = 2.300000e+00
m.xm8.msky130_fd_pr__pfet_g5v0d10v5#dbody = 2.300000e+00
m.xm8.msky130_fd_pr__pfet_g5v0d10v5#sbody = 2.300000e+00
m.xm9.msky130_fd_pr__nfet_g5v0d10v5#body = 2.777794e-11
m.xm9.msky130_fd_pr__nfet_g5v0d10v5#dbody = 5.379994e-11
m.xm9.msky130_fd_pr__nfet_g5v0d10v5#sbody = 2.953388e-11
m.xm10.msky130_fd_pr__nfet_g5v0d10v5#body = 2.760846e-11
m.xm10.msky130_fd_pr__nfet_g5v0d10v5#dbody = 5.337623e-11
m.xm10.msky130_fd_pr__nfet_g5v0d10v5#sbody = 2.944914e-11
m.xm11.msky130_fd_pr__pfet_g5v0d10v5#body = 2.300000e+00
m.xm11.msky130_fd_pr__pfet_g5v0d10v5#dbody = 2.300000e+00
m.xm11.msky130_fd_pr__pfet_g5v0d10v5#sbody = 2.300000e+00
m.xm12.msky130_fd_pr__pfet_g5v0d10v5#body = 2.300000e+00
m.xm12.msky130_fd_pr__pfet_g5v0d10v5#dbody = 2.300000e+00
m.xm12.msky130_fd_pr__pfet_g5v0d10v5#sbody = 2.300000e+00
m.xm13.msky130_fd_pr__nfet_g5v0d10v5#body = 6.174776e-12
m.xm13.msky130_fd_pr__nfet_g5v0d10v5#dbody = 1.543687e-11
m.xm13.msky130_fd_pr__nfet_g5v0d10v5#sbody = 3.087459e-12
m.xm14.msky130_fd_pr__pfet_g5v0d10v5#body = 2.300000e+00
m.xm14.msky130_fd_pr__pfet_g5v0d10v5#dbody = 2.300000e+00
m.xm14.msky130_fd_pr__pfet_g5v0d10v5#sbody = 2.300000e+00
m.xm15.msky130_fd_pr__nfet_g5v0d10v5#body = 1.638243e-14
m.xm15.msky130_fd_pr__nfet_g5v0d10v5#dbody = 4.095477e-14
m.xm15.msky130_fd_pr__nfet_g5v0d10v5#sbody = 8.192512e-15
m.xm16.msky130_fd_pr__nfet_g5v0d10v5#body = 5.351365e-11
m.xm16.msky130_fd_pr__nfet_g5v0d10v5#dbody = 9.475943e-11
m.xm16.msky130_fd_pr__nfet_g5v0d10v5#sbody = 6.578152e-11
m.xm17.msky130_fd_pr__pfet_g5v0d10v5#body = 2.300000e+00
m.xm17.msky130_fd_pr__pfet_g5v0d10v5#dbody = 2.300000e+00
m.xm17.msky130_fd_pr__pfet_g5v0d10v5#sbody = 2.300000e+00
m.xm18.msky130_fd_pr__nfet_g5v0d10v5#body = 1.919047e-11
m.xm18.msky130_fd_pr__nfet_g5v0d10v5#dbody = 4.797512e-11
m.xm18.msky130_fd_pr__nfet_g5v0d10v5#sbody = 9.595314e-12
m.xm19.msky130_fd_pr__nfet_g5v0d10v5#body = 2.957515e-11
m.xm19.msky130_fd_pr__nfet_g5v0d10v5#dbody = 5.566772e-11
m.xm19.msky130_fd_pr__nfet_g5v0d10v5#sbody = 3.305773e-11
m.xm20.msky130_fd_pr__nfet_g5v0d10v5#body = 1.275714e-11
m.xm20.msky130_fd_pr__nfet_g5v0d10v5#dbody = 3.189277e-11
m.xm20.msky130_fd_pr__nfet_g5v0d10v5#sbody = 6.378648e-12
m.xm22.msky130_fd_pr__nfet_g5v0d10v5#body = 1.243039e-11
m.xm22.msky130_fd_pr__nfet_g5v0d10v5#dbody = 3.107586e-11
m.xm22.msky130_fd_pr__nfet_g5v0d10v5#sbody = 6.215308e-12
m.xm24.msky130_fd_pr__pfet_g5v0d10v5#body = 2.300000e+00
m.xm24.msky130_fd_pr__pfet_g5v0d10v5#dbody = 2.300000e+00
m.xm24.msky130_fd_pr__pfet_g5v0d10v5#sbody = 2.300000e+00
m.xm26.msky130_fd_pr__pfet_g5v0d10v5#body = 2.300000e+00
m.xm26.msky130_fd_pr__pfet_g5v0d10v5#dbody = 2.300000e+00
m.xm26.msky130_fd_pr__pfet_g5v0d10v5#sbody = 2.300000e+00
mir = 1.213084e+00
net1 = 6.241023e-01
net2 = 3.167967e-05
net3 = 6.981462e-01
net4 = 3.107385e-01
net5 = 1.215102e+00
net6 = 8.640584e-01
net7 = 6.981279e-01
net8 = 1.294598e+00
net9 = 1.308157e+00
net10 = 3.375253e-01
net11 = 1.378736e+00
net12 = 1.378736e+00
net13 = 0.000000e+00
out = 1.378736e+00
pos = 1.197924e+00
q.xq2.qsky130_fd_pr__pnp_05v5_w0p68l0p68#collcx = 3.167355e-03
q.xq3.qsky130_fd_pr__pnp_05v5_w0p68l0p68#collcx = 3.986404e-04
q.xq4.qsky130_fd_pr__pnp_05v5_w0p68l0p68#collcx = 3.986404e-04
q.xq8.qsky130_fd_pr__pnp_05v5_w0p68l0p68#collcx = 3.986404e-04
q.xq10.qsky130_fd_pr__pnp_05v5_w0p68l0p68#collcx = 3.986404e-04
q.xq12.qsky130_fd_pr__pnp_05v5_w0p68l0p68#collcx = 3.986404e-04
q.xq14.qsky130_fd_pr__pnp_05v5_w0p68l0p68#collcx = 3.986404e-04
q.xq16.qsky130_fd_pr__pnp_05v5_w0p68l0p68#collcx = 3.986404e-04
q.xq18.qsky130_fd_pr__pnp_05v5_w0p68l0p68#collcx = 3.986404e-04
vb = 8.641082e-01
vdd = 2.300000e+00
vs#branch = -1.01589e-02
vt#branch = 0.000000e+00
xc1.a = 0.000000e+00
xc1.b1 = 0.000000e+00
xc3.a = 1.378736e+00
xc3.b1 = 1.378736e+00
xr1.xsky130_fd_pr__res_xhigh_po_0p69.ra = 7.012885e-01
xr2.xsky130_fd_pr__res_xhigh_po_0p69.ra = 7.013068e-01
xr3.xsky130_fd_pr__res_xhigh_po_0p69.ra = 1.873351e-03
xr4.xsky130_fd_pr__res_xhigh_po_0p69.ra = 6.254060e-01
xr5.xsky130_fd_pr__res_xhigh_po_0p69.ra = 1.873299e-03
xr6.xsky130_fd_pr__res_xhigh_po_0p69.ra = 3.346649e-03
xr7.xsky130_fd_pr__res_xhigh_po_0p69.ra = 1.378736e+00
xr8.xsky130_fd_pr__res_xhigh_po_0p69.ra = 1.203486e+00
xr9.xsky130_fd_pr__res_xhigh_po_0p69.ra = 5.832708e-03
Doing analysis at TEMP = 85.000000 and TNOM = 27.000000


No. of Data Rows : 91
Note: Starting true gmin stepping
Trying gmin =   1.0000E-03 Note: One successful gmin step
Trying gmin =   1.0000E-04 Note: One successful gmin step
Trying gmin =   1.0000E-05 Note: One successful gmin step
Trying gmin =   1.0000E-06 Note: One successful gmin step
Trying gmin =   1.0000E-07 Note: One successful gmin step
Trying gmin =   1.0000E-08 Warning: Further gmin increment
Trying gmin =   5.6234E-08 Warning: Further gmin increment
Trying gmin =   8.6596E-08 Note: One successful gmin step
Trying gmin =   6.9783E-08 Note: One successful gmin step
Trying gmin =   5.0481E-08 Warning: Further gmin increment
Trying gmin =   6.4357E-08 Note: One successful gmin step
Trying gmin =   5.6998E-08 Warning: Further gmin increment
Trying gmin =   6.2432E-08 Note: One successful gmin step
Trying gmin =   5.9653E-08 Warning: Further gmin increment
Trying gmin =   6.1726E-08 Note: One successful gmin step
Trying gmin =   6.0681E-08 Warning: Further gmin increment
Trying gmin =   6.1463E-08 Note: One successful gmin step
Trying gmin =   6.1070E-08 Note: One successful gmin step
Trying gmin =   6.0487E-08 Warning: Further gmin increment
Trying gmin =   6.0924E-08 Note: One successful gmin step
Trying gmin =   6.0705E-08 Warning: Further gmin increment
Trying gmin =   6.0869E-08 Note: One successful gmin step
Trying gmin =   6.0787E-08 Note: One successful gmin step
Trying gmin =   6.0664E-08 Warning: Further gmin increment
Trying gmin =   6.0756E-08 Warning: Further gmin increment
Trying gmin =   6.0779E-08 Note: One successful gmin step
Trying gmin =   6.0768E-08 Note: One successful gmin step
Trying gmin =   6.0750E-08 Warning: Further gmin increment
Trying gmin =   6.0763E-08 Note: One successful gmin step
Trying gmin =   6.0757E-08 Note: One successful gmin step
Trying gmin =   6.0747E-08 Warning: Further gmin increment
Trying gmin =   6.0755E-08 Warning: Last gmin step failed
Warning: True gmin stepping failed
Note: Starting dynamic gmin stepping
Trying gmin =   1.0000E-03 Note: One successful gmin step
Trying gmin =   1.0000E-04 Note: One successful gmin step
Trying gmin =   1.0000E-05 Warning: Further gmin increment
Trying gmin =   5.6234E-05 Note: One successful gmin step
Trying gmin =   2.3714E-05 Note: One successful gmin step
Trying gmin =   6.4938E-06 Warning: Further gmin increment
Trying gmin =   1.7154E-05 Note: One successful gmin step
Trying gmin =   1.0554E-05 Note: One successful gmin step
Trying gmin =   6.4938E-06 Note: One successful gmin step
Trying gmin =   3.1340E-06 Note: One successful gmin step
Trying gmin =   1.5125E-06 Note: One successful gmin step
Trying gmin =   5.0708E-07 Note: One successful gmin step
Trying gmin =   9.8438E-08 Note: One successful gmin step
Trying gmin =   4.3372E-08 Note: One successful gmin step
Trying gmin =   1.2684E-08 Note: One successful gmin step
Trying gmin =   2.0062E-09 Note: One successful gmin step
Trying gmin =   2.0062E-10 Note: One successful gmin step
Trying gmin =   2.0062E-11 Note: One successful gmin step
Trying gmin =   2.0062E-12 Note: One successful gmin step
Trying gmin =   1.0000E-12 Note: One successful gmin step
Warning: Dynamic gmin stepping failed
Note: Starting source stepping
Supplies reduced to   0.0000% Note: One successful source step
Supplies reduced to   0.1000% Note: One successful source step
Supplies reduced to   0.2000% Note: One successful source step
Supplies reduced to   0.3500% Note: One successful source step
Supplies reduced to   0.5750% Note: One successful source step
Supplies reduced to   0.9125% Note: One successful source step
Supplies reduced to   1.4188% Note: One successful source step
Supplies reduced to   2.1781% Note: One successful source step
Supplies reduced to   3.3172% Note: One successful source step
Supplies reduced to   5.0258% Note: One successful source step
Supplies reduced to   7.5887% Note: One successful source step
Supplies reduced to  11.4330% Note: One successful source step
Supplies reduced to  17.1995% Note: One successful source step
Supplies reduced to  25.8493% Supplies reduced to  17.1995% Note: One successful source step
Supplies reduced to  18.1995% Note: One successful source step
Supplies reduced to  19.6995% Note: One successful source step
Supplies reduced to  21.9495% Supplies reduced to  19.6995% Note: One successful source step
Supplies reduced to  20.0370% Note: One successful source step
Supplies reduced to  20.5433% Note: One successful source step
Supplies reduced to  21.0495% Note: One successful source step
Supplies reduced to  21.8089% Note: One successful source step
Supplies reduced to  22.5683% Note: One successful source step
Supplies reduced to  23.7073% Note: One successful source step
Supplies reduced to  25.4159% Note: One successful source step
Supplies reduced to  27.9788% Note: One successful source step
Supplies reduced to  31.8231% Note: One successful source step
Supplies reduced to  37.5896% Note: One successful source step
Supplies reduced to  46.2394% Note: One successful source step
Supplies reduced to  59.2140% Note: One successful source step
Supplies reduced to  78.6760% Supplies reduced to  59.2140% Note: One successful source step
Supplies reduced to  60.2140% Note: One successful source step
Supplies reduced to  61.7140% Note: One successful source step
Supplies reduced to  63.9640% Note: One successful source step
Supplies reduced to  67.3390% Note: One successful source step
Supplies reduced to  72.4015% Supplies reduced to  67.3390% Note: One successful source step
Supplies reduced to  68.0984% Note: One successful source step
Supplies reduced to  69.2375% Note: One successful source step
Supplies reduced to  70.9461% Supplies reduced to  69.2375% Note: One successful source step
Supplies reduced to  69.4938% Supplies reduced to  69.2375% Note: One successful source step
Supplies reduced to  69.2759% Note: One successful source step
Supplies reduced to  69.3336% Supplies reduced to  69.2759% Note: One successful source step
Supplies reduced to  69.2846% Note: One successful source step
Supplies reduced to  69.2975% Note: One successful source step
Supplies reduced to  69.3170% Supplies reduced to  69.2975% Note: One successful source step
Supplies reduced to  69.3005% Note: One successful source step
Supplies reduced to  69.3048% Note: One successful source step
Supplies reduced to  69.3114% Note: One successful source step
Supplies reduced to  69.3213% Supplies reduced to  69.3114% Note: One successful source step
Supplies reduced to  69.3129% Note: One successful source step
Supplies reduced to  69.3151% Note: One successful source step
Supplies reduced to  69.3184% Supplies reduced to  69.3151% Note: One successful source step
Supplies reduced to  69.3156% Supplies reduced to  69.3151% Note: One successful source step
Supplies reduced to  69.3152% Note: One successful source step
Supplies reduced to  69.3153% Note: One successful source step
Supplies reduced to  69.3155% Supplies reduced to  69.3153% Note: One successful source step
Supplies reduced to  69.3153% Note: One successful source step
Supplies reduced to  69.3154% Note: One successful source step
Supplies reduced to  69.3154% Note: One successful source step
Supplies reduced to  69.3155% Supplies reduced to  69.3154% Note: One successful source step
Supplies reduced to  69.3154% Note: One successful source step
Warning: source stepping failed
doAnalyses: Too many iterations without convergence

dc simulation(s) aborted
Error(parse.c--checkvalid): vldo_sup_2_8: zero length vector.
Error: RHS "abs((vldo_sup_2_8-vldo_sup_2)/0.8)" invalid
Error(parse.c--checkvalid): line_reg: zero length vector.
Error(parse.c--checkvalid): vin: zero length vector.
Error: RHS "vin-1.764" invalid
Error(parse.c--checkvalid): dropout: zero length vector.
Error: no such vector dropout
Note: No ".plot", ".print", or ".fourier" lines; no simulations run
pm                  =  -8.213035e+01
Doing analysis at TEMP = 85.000000 and TNOM = 27.000000


No. of Data Rows : 91
psrr100             =  -5.108582e+01
psrr100k            =  -2.719173e+01
Doing analysis at TEMP = 85.000000 and TNOM = 27.000000


No. of Data Rows : 86
temp_coeff = 1.450577e+02
Doing analysis at TEMP = 85.000000 and TNOM = 27.000000


Error: measure  vldo_sup_2  (AT) : out of interval
 meas dc vldo_sup_2 find ldo_out at=2 failed!


Error: measure  vldo_sup_2_8  (AT) : out of interval
 meas dc vldo_sup_2_8 find ldo_out at=2.8 failed!


Error: measure  vin  (WHEN) : out of interval
 meas dc vin when v(ldo_out)=1.764 failed!

