Note: Starting true gmin stepping
Trying gmin =   1.0000E-03 Note: One successful gmin step
Trying gmin =   1.0000E-04 Note: One successful gmin step
Trying gmin =   1.0000E-05 Note: One successful gmin step
Trying gmin =   1.0000E-06 Note: One successful gmin step
Trying gmin =   1.0000E-07 Warning: Further gmin increment
Trying gmin =   5.6234E-07 Note: One successful gmin step
Trying gmin =   2.3714E-07 Warning: Further gmin increment
Trying gmin =   4.5316E-07 Warning: Further gmin increment
Trying gmin =   5.3280E-07 Note: One successful gmin step
Trying gmin =   4.9137E-07 Note: One successful gmin step
Trying gmin =   4.3518E-07 Warning: Further gmin increment
Trying gmin =   4.7668E-07 Note: One successful gmin step
Trying gmin =   4.5546E-07 Warning: Further gmin increment
Trying gmin =   4.7128E-07 Note: One successful gmin step
Trying gmin =   4.6330E-07 Note: One successful gmin step
Trying gmin =   4.5936E-07 Note: One successful gmin step
Trying gmin =   4.5352E-07 Note: One successful gmin step
Trying gmin =   4.4489E-07 Note: One successful gmin step
Trying gmin =   4.3225E-07 Note: One successful gmin step
Trying gmin =   4.1397E-07 Note: One successful gmin step
Trying gmin =   3.8798E-07 Note: One successful gmin step
Trying gmin =   3.5202E-07 Note: One successful gmin step
Trying gmin =   3.0424E-07 Note: One successful gmin step
Trying gmin =   2.4445E-07 Note: One successful gmin step
Trying gmin =   1.7605E-07 Note: One successful gmin step
Trying gmin =   1.0761E-07 Note: One successful gmin step
Trying gmin =   5.1417E-08 Note: One successful gmin step
Trying gmin =   1.6983E-08 Note: One successful gmin step
Trying gmin =   3.2240E-09 Note: One successful gmin step
Trying gmin =   3.2240E-10 Note: One successful gmin step
Trying gmin =   3.2240E-11 Note: One successful gmin step
Trying gmin =   3.2240E-12 Note: One successful gmin step
Trying gmin =   1.0000E-12 Note: One successful gmin step
Note: True gmin stepping completed
 Reference value :  0.00000e+00
No compatibility mode selected!


Circuit: * ldo netlist 

Doing analysis at TEMP = 85.000000 and TNOM = 27.000000


No. of Data Rows : 1
bg_out = 1.104607e+00
inn = 1.071856e+00
inp = 1.071682e+00
l1#branch = 0.000000e+00
ldo_out = 1.816449e+00
m.xm1.msky130_fd_pr__nfet_g5v0d10v5#body = 2.374927e-11
m.xm1.msky130_fd_pr__nfet_g5v0d10v5#dbody = 4.410661e-11
m.xm1.msky130_fd_pr__nfet_g5v0d10v5#sbody = 2.714121e-11
m.xm2.msky130_fd_pr__pfet_g5v0d10v5#body = 2.100000e+00
m.xm2.msky130_fd_pr__pfet_g5v0d10v5#dbody = 2.100000e+00
m.xm2.msky130_fd_pr__pfet_g5v0d10v5#sbody = 2.100000e+00
m.xm3.msky130_fd_pr__pfet_g5v0d10v5#body = 2.100000e+00
m.xm3.msky130_fd_pr__pfet_g5v0d10v5#dbody = 2.100000e+00
m.xm3.msky130_fd_pr__pfet_g5v0d10v5#sbody = 2.100000e+00
m.xm4.msky130_fd_pr__pfet_g5v0d10v5#body = 2.100000e+00
m.xm4.msky130_fd_pr__pfet_g5v0d10v5#dbody = 2.100000e+00
m.xm4.msky130_fd_pr__pfet_g5v0d10v5#sbody = 2.100000e+00
m.xm5.msky130_fd_pr__pfet_g5v0d10v5#body = 2.100000e+00
m.xm5.msky130_fd_pr__pfet_g5v0d10v5#dbody = 2.100000e+00
m.xm5.msky130_fd_pr__pfet_g5v0d10v5#sbody = 2.100000e+00
m.xm6.msky130_fd_pr__nfet_g5v0d10v5#body = 2.041085e-11
m.xm6.msky130_fd_pr__nfet_g5v0d10v5#dbody = 5.102700e-11
m.xm6.msky130_fd_pr__nfet_g5v0d10v5#sbody = 1.020555e-11
m.xm7.msky130_fd_pr__pfet_g5v0d10v5#body = 2.100000e+00
m.xm7.msky130_fd_pr__pfet_g5v0d10v5#dbody = 2.100000e+00
m.xm7.msky130_fd_pr__pfet_g5v0d10v5#sbody = 2.100000e+00
m.xm8.msky130_fd_pr__pfet_g5v0d10v5#body = 2.100000e+00
m.xm8.msky130_fd_pr__pfet_g5v0d10v5#dbody = 2.100000e+00
m.xm8.msky130_fd_pr__pfet_g5v0d10v5#sbody = 2.100000e+00
m.xm9.msky130_fd_pr__nfet_g5v0d10v5#body = 2.199994e-11
m.xm9.msky130_fd_pr__nfet_g5v0d10v5#dbody = 4.287389e-11
m.xm9.msky130_fd_pr__nfet_g5v0d10v5#sbody = 2.312594e-11
m.xm10.msky130_fd_pr__nfet_g5v0d10v5#body = 2.171105e-11
m.xm10.msky130_fd_pr__nfet_g5v0d10v5#dbody = 4.215165e-11
m.xm10.msky130_fd_pr__nfet_g5v0d10v5#sbody = 2.298149e-11
m.xm11.msky130_fd_pr__pfet_g5v0d10v5#body = 2.100000e+00
m.xm11.msky130_fd_pr__pfet_g5v0d10v5#dbody = 2.100000e+00
m.xm11.msky130_fd_pr__pfet_g5v0d10v5#sbody = 2.100000e+00
m.xm12.msky130_fd_pr__pfet_g5v0d10v5#body = 2.100000e+00
m.xm12.msky130_fd_pr__pfet_g5v0d10v5#dbody = 2.100000e+00
m.xm12.msky130_fd_pr__pfet_g5v0d10v5#sbody = 2.100000e+00
m.xm13.msky130_fd_pr__nfet_g5v0d10v5#body = 4.420131e-12
m.xm13.msky130_fd_pr__nfet_g5v0d10v5#dbody = 1.105026e-11
m.xm13.msky130_fd_pr__nfet_g5v0d10v5#sbody = 2.210132e-12
m.xm14.msky130_fd_pr__pfet_g5v0d10v5#body = 2.100000e+00
m.xm14.msky130_fd_pr__pfet_g5v0d10v5#dbody = 2.100000e+00
m.xm14.msky130_fd_pr__pfet_g5v0d10v5#sbody = 2.100000e+00
m.xm15.msky130_fd_pr__nfet_g5v0d10v5#body = 5.260638e-15
m.xm15.msky130_fd_pr__nfet_g5v0d10v5#dbody = 1.315142e-14
m.xm15.msky130_fd_pr__nfet_g5v0d10v5#sbody = 2.630494e-15
m.xm16.msky130_fd_pr__nfet_g5v0d10v5#body = 5.025453e-11
m.xm16.msky130_fd_pr__nfet_g5v0d10v5#dbody = 8.823359e-11
m.xm16.msky130_fd_pr__nfet_g5v0d10v5#sbody = 6.252999e-11
m.xm17.msky130_fd_pr__pfet_g5v0d10v5#body = 2.100000e+00
m.xm17.msky130_fd_pr__pfet_g5v0d10v5#dbody = 2.100000e+00
m.xm17.msky130_fd_pr__pfet_g5v0d10v5#sbody = 2.100000e+00
m.xm18.msky130_fd_pr__nfet_g5v0d10v5#body = 1.456505e-11
m.xm18.msky130_fd_pr__nfet_g5v0d10v5#dbody = 3.641255e-11
m.xm18.msky130_fd_pr__nfet_g5v0d10v5#sbody = 7.282608e-12
m.xm19.msky130_fd_pr__nfet_g5v0d10v5#body = 2.395822e-11
m.xm19.msky130_fd_pr__nfet_g5v0d10v5#dbody = 4.462897e-11
m.xm19.msky130_fd_pr__nfet_g5v0d10v5#sbody = 2.724569e-11
m.xm20.msky130_fd_pr__nfet_g5v0d10v5#body = 1.441893e-11
m.xm20.msky130_fd_pr__nfet_g5v0d10v5#dbody = 3.604724e-11
m.xm20.msky130_fd_pr__nfet_g5v0d10v5#sbody = 7.209547e-12
m.xm22.msky130_fd_pr__nfet_g5v0d10v5#body = 1.091731e-11
m.xm22.msky130_fd_pr__nfet_g5v0d10v5#dbody = 2.729317e-11
m.xm22.msky130_fd_pr__nfet_g5v0d10v5#sbody = 5.458766e-12
m.xm24.msky130_fd_pr__pfet_g5v0d10v5#body = 2.100000e+00
m.xm24.msky130_fd_pr__pfet_g5v0d10v5#dbody = 2.100000e+00
m.xm24.msky130_fd_pr__pfet_g5v0d10v5#sbody = 2.100000e+00
m.xm26.msky130_fd_pr__pfet_g5v0d10v5#body = 2.100000e+00
m.xm26.msky13Note: Starting true gmin stepping
Trying gmin =   1.0000E-03 Note: One successful gmin step
Trying gmin =   1.0000E-04 Note: One successful gmin step
Trying gmin =   1.0000E-05 Note: One successful gmin step
Trying gmin =   1.0000E-06 Note: One successful gmin step
Trying gmin =   1.0000E-07 Warning: Further gmin increment
Trying gmin =   5.6234E-07 Note: One successful gmin step
Trying gmin =   2.3714E-07 Warning: Further gmin increment
Trying gmin =   4.5316E-07 Warning: Further gmin increment
Trying gmin =   5.3280E-07 Note: One successful gmin step
Trying gmin =   4.9137E-07 Note: One successful gmin step
Trying gmin =   4.3518E-07 Warning: Further gmin increment
Trying gmin =   4.7668E-07 Note: One successful gmin step
Trying gmin =   4.5546E-07 Warning: Further gmin increment
Trying gmin =   4.7128E-07 Note: One successful gmin step
Trying gmin =   4.6330E-07 Note: One successful gmin step
Trying gmin =   4.5936E-07 Note: One successful gmin step
Trying gmin =   4.5352E-07 Note: One successful gmin step
Trying gmin =   4.4489E-07 Note: One successful gmin step
Trying gmin =   4.3225E-07 Note: One successful gmin step
Trying gmin =   4.1397E-07 Note: One successful gmin step
Trying gmin =   3.8798E-07 Note: One successful gmin step
Trying gmin =   3.5202E-07 Note: One successful gmin step
Trying gmin =   3.0424E-07 Note: One successful gmin step
Trying gmin =   2.4445E-07 Note: One successful gmin step
Trying gmin =   1.7605E-07 Note: One successful gmin step
Trying gmin =   1.0761E-07 Note: One successful gmin step
Trying gmin =   5.1417E-08 Note: One successful gmin step
Trying gmin =   1.6983E-08 Note: One successful gmin step
Trying gmin =   3.2240E-09 Note: One successful gmin step
Trying gmin =   3.2240E-10 Note: One successful gmin step
Trying gmin =   3.2240E-11 Note: One successful gmin step
Trying gmin =   3.2240E-12 Note: One successful gmin step
Trying gmin =   1.0000E-12 Note: One successful gmin step
Note: True gmin stepping completed
0_fd_pr__pfet_g5v0d10v5#dbody = 2.100000e+00
m.xm26.msky130_fd_pr__pfet_g5v0d10v5#sbody = 2.100000e+00
mir = 8.650258e-01
net1 = 6.383000e-01
net2 = 1.013902e-05
net3 = 7.116318e-01
net4 = 1.879000e-01
net5 = 8.817414e-01
net6 = 9.449664e-01
net7 = 7.114553e-01
net8 = 9.594141e-01
net9 = 9.825256e-01
net10 = 1.934760e-01
net11 = 1.004592e+00
net12 = 1.004592e+00
net13 = 0.000000e+00
out = 1.004592e+00
pos = 1.104899e+00
q.xq2.qsky130_fd_pr__pnp_05v5_w0p68l0p68#collcx = 2.928029e-03
q.xq3.qsky130_fd_pr__pnp_05v5_w0p68l0p68#collcx = 3.728595e-04
q.xq4.qsky130_fd_pr__pnp_05v5_w0p68l0p68#collcx = 3.728595e-04
q.xq8.qsky130_fd_pr__pnp_05v5_w0p68l0p68#collcx = 3.728595e-04
q.xq10.qsky130_fd_pr__pnp_05v5_w0p68l0p68#collcx = 3.728595e-04
q.xq12.qsky130_fd_pr__pnp_05v5_w0p68l0p68#collcx = 3.728595e-04
q.xq14.qsky130_fd_pr__pnp_05v5_w0p68l0p68#collcx = 3.728595e-04
q.xq16.qsky130_fd_pr__pnp_05v5_w0p68l0p68#collcx = 3.728595e-04
q.xq18.qsky130_fd_pr__pnp_05v5_w0p68l0p68#collcx = 3.728595e-04
vb = 9.929024e-01
vdd = 2.100000e+00
vs#branch = -1.02341e-02
vt#branch = 0.000000e+00
xc1.a = 0.000000e+00
xc1.b1 = 0.000000e+00
xc3.a = 1.004592e+00
xc3.b1 = 1.004592e+00
xr1.xsky130_fd_pr__res_xhigh_po_0p69.ra = 7.147111e-01
xr2.xsky130_fd_pr__res_xhigh_po_0p69.ra = 7.148876e-01
xr3.xsky130_fd_pr__res_xhigh_po_0p69.ra = 2.006690e-03
xr4.xsky130_fd_pr__res_xhigh_po_0p69.ra = 6.395884e-01
xr5.xsky130_fd_pr__res_xhigh_po_0p69.ra = 2.006163e-03
xr6.xsky130_fd_pr__res_xhigh_po_0p69.ra = 3.445089e-03
xr7.xsky130_fd_pr__res_xhigh_po_0p69.ra = 1.004592e+00
xr8.xsky130_fd_pr__res_xhigh_po_0p69.ra = 1.110130e+00
xr9.xsky130_fd_pr__res_xhigh_po_0p69.ra = 5.401220e-03
Doing analysis at TEMP = 85.000000 and TNOM = 27.000000


No. of Data Rows : 91
Error: no such vector PM
Note: Starting true gmin stepping
Trying gmin =   1.0000E-03 Note: One successful gmin step
Trying gmin =   1.0000E-04 Note: One successful gmin step
Trying gmin =   1.0000E-05 Note: One successful gmin step
Trying gmin =   1.0000E-06 Note: One successful gmin step
Trying gmin =   1.0000E-07 Warning: Further gmin increment
Trying gmin =   5.6234E-07 Note: One successful gmin step
Trying gmin =   2.3714E-07 Warning: Further gmin increment
Trying gmin =   4.5316E-07 Warning: Further gmin increment
Trying gmin =   5.3280E-07 Note: One successful gmin step
Trying gmin =   4.9137E-07 Note: One successful gmin step
Trying gmin =   4.3518E-07 Warning: Further gmin increment
Trying gmin =   4.7668E-07 Note: One successful gmin step
Trying gmin =   4.5546E-07 Warning: Further gmin increment
Trying gmin =   4.7128E-07 Note: One successful gmin step
Trying gmin =   4.6330E-07 Note: One successful gmin step
Trying gmin =   4.5936E-07 Note: One successful gmin step
Trying gmin =   4.5352E-07 Note: One successful gmin step
Trying gmin =   4.4489E-07 Note: One successful gmin step
Trying gmin =   4.3225E-07 Note: One successful gmin step
Trying gmin =   4.1397E-07 Note: One successful gmin step
Trying gmin =   3.8798E-07 Note: One successful gmin step
Trying gmin =   3.5202E-07 Note: One successful gmin step
Trying gmin =   3.0424E-07 Note: One successful gmin step
Trying gmin =   2.4445E-07 Note: One successful gmin step
Trying gmin =   1.7605E-07 Note: One successful gmin step
Trying gmin =   1.0761E-07 Note: One successful gmin step
Trying gmin =   5.1417E-08 Note: One successful gmin step
Trying gmin =   1.6983E-08 Note: One successful gmin step
Trying gmin =   3.2240E-09 Note: One successful gmin step
Trying gmin =   3.2240E-10 Note: One successful gmin step
Trying gmin =   3.2240E-11 Note: One successful gmin step
Trying gmin =   3.2240E-12 Note: One successful gmin step
Trying gmin =   1.0000E-12 Note: One successful gmin step
Note: True gmin stepping completed
 Reference value :  1.00000e+00Note: Starting true gmin stepping
Trying gmin =   1.0000E-03 Note: One successful gmin step
Trying gmin =   1.0000E-04 Note: One successful gmin step
Trying gmin =   1.0000E-05 Note: One successful gmin step
Trying gmin =   1.0000E-06 Note: One successful gmin step
Trying gmin =   1.0000E-07 Warning: Further gmin increment
Trying gmin =   5.6234E-07 Note: One successful gmin step
Trying gmin =   2.3714E-07 Warning: Further gmin increment
Trying gmin =   4.5316E-07 Warning: Further gmin increment
Trying gmin =   5.3280E-07 Note: One successful gmin step
Trying gmin =   4.9137E-07 Note: One successful gmin step
Trying gmin =   4.3518E-07 Warning: Further gmin increment
Trying gmin =   4.7668E-07 Note: One successful gmin step
Trying gmin =   4.5546E-07 Warning: Further gmin increment
Trying gmin =   4.7128E-07 Note: One successful gmin step
Trying gmin =   4.6330E-07 Note: One successful gmin step
Trying gmin =   4.5936E-07 Note: One successful gmin step
Trying gmin =   4.5352E-07 Note: One successful gmin step
Trying gmin =   4.4489E-07 Note: One successful gmin step
Trying gmin =   4.3225E-07 Note: One successful gmin step
Trying gmin =   4.1397E-07 Note: One successful gmin step
Trying gmin =   3.8798E-07 Note: One successful gmin step
Trying gmin =   3.5202E-07 Note: One successful gmin step
Trying gmin =   3.0424E-07 Note: One successful gmin step
Trying gmin =   2.4445E-07 Note: One successful gmin step
Trying gmin =   1.7605E-07 Note: One successful gmin step
Trying gmin =   1.0761E-07 Note: One successful gmin step
Trying gmin =   5.1417E-08 Note: One successful gmin step
Trying gmin =   1.6983E-08 Note: One successful gmin step
Trying gmin =   3.2240E-09 Note: One successful gmin step
Trying gmin =   3.2240E-10 Note: One successful gmin step
Trying gmin =   3.2240E-11 Note: One successful gmin step
Trying gmin =   3.2240E-12 Note: One successful gmin step
Trying gmin =   1.0000E-12 Note: One successful gmin step
Note: True gmin stepping completed
 Reference value :  8.50000e+01Note: Starting true gmin stepping
Trying gmin =   1.0000E-03 Note: One successful gmin step
Trying gmin =   1.0000E-04 Note: One successful gmin step
Trying gmin =   1.0000E-05 Note: One successful gmin step
Trying gmin =   1.0000E-06 Note: One successful gmin step
Trying gmin =   1.0000E-07 Warning: Further gmin increment
Trying gmin =   5.6234E-07 Note: One successful gmin step
Trying gmin =   2.3714E-07 Note: One successful gmin step
Trying gmin =   6.4938E-08 Warning: Further gmin increment
Trying gmin =   1.7154E-07 Note: One successful gmin step
Trying gmin =   1.0554E-07 Warning: Further gmin increment
Trying gmin =   1.5193E-07 Warning: Further gmin increment
Trying gmin =   1.6641E-07 Note: One successful gmin step
Trying gmin =   1.5901E-07 Warning: Further gmin increment
Trying gmin =   1.6453E-07 Warning: Further gmin increment
Trying gmin =   1.6594E-07 Note: One successful gmin step
Trying gmin =   1.6523E-07 Warning: Further gmin increment
Trying gmin =   1.6576E-07 Note: One successful gmin step
Trying gmin =   1.6550E-07 Note: One successful gmin step
Trying gmin =   1.6510E-07 Warning: Further gmin increment
Trying gmin =   1.6540E-07 Warning: Further gmin increment
Trying gmin =   1.6547E-07 Note: One successful gmin step
Trying gmin =   1.6544E-07 Note: One successful gmin step
Trying gmin =   1.6538E-07 Warning: Further gmin increment
Trying gmin =   1.6542E-07 Warning: Further gmin increment
Trying gmin =   1.6543E-07 Note: One successful gmin step
Trying gmin =   1.6543E-07 Note: One successful gmin step
Trying gmin =   1.6542E-07 Warning: Last gmin step failed
Warning: True gmin stepping failed
Note: Starting dynamic gmin stepping
Trying gmin =   1.0000E-03 Note: One successful gmin step
Trying gmin =   1.0000E-04 Note: One successful gmin step
Trying gmin =   1.0000E-05 Note: One successful gmin step
Trying gmin =   1.0000E-06 Note: One successful gmin step
Trying gmin =   1.0000E-07 Warning: Further gmin increment
Trying gmin =   5.6234E-07 Warning: Further gmin increment
Trying gmin =   8.6596E-07 Note: One successful gmin step
Trying gmin =   6.9783E-07 Warning: Further gmin increment
Trying gmin =   8.2047E-07 Note: One successful gmin step
Trying gmin =   7.5667E-07 Warning: Further gmin increment
Trying gmin =   8.0403E-07 Note: One successful gmin step
Trying gmin =   7.7999E-07 Warning: Further gmin increment
Trying gmin =   7.9795E-07 Note: One successful gmin step
Trying gmin =   7.8892E-07 Warning: Further gmin increment
Trying gmin =   7.9569E-07 Note: One successful gmin step
Trying gmin =   7.9230E-07 Note: One successful gmin step
Trying gmin =   7.8724E-07 Warning: Further gmin increment
Trying gmin =   7.9103E-07 Warning: Further gmin increment
Trying gmin =   7.9198E-07 Note: One successful gmin step
Trying gmin =   7.9150E-07 Warning: Further gmin increment
Trying gmin =   7.9186E-07 Warning: Further gmin increment
Trying gmin =   7.9195E-07 Note: One successful gmin step
Trying gmin =   7.9191E-07 Note: One successful gmin step
Trying gmin =   7.9184E-07 Warning: Further gmin increment
Trying gmin =   7.9189E-07 Note: One successful gmin step
Trying gmin =   7.9186E-07 Note: One successful gmin step
Trying gmin =   7.9183E-07 Warning: Last gmin step failed
Warning: Dynamic gmin stepping failed
Note: Starting source stepping
Supplies reduced to   0.0000% Note: One successful source step
Supplies reduced to   0.1000% Note: One successful source step
Supplies reduced to   0.2000% Note: One successful source step
Supplies reduced to   0.3500% Note: One successful source step
Supplies reduced to   0.5750% Note: One successful source step
Supplies reduced to   0.9125% Note: One successful source step
Supplies reduced to   1.4188% Note: One successful source step
Supplies reduced to   2.1781% Note: One successful source step
Supplies reduced to   3.3172% Note: One successful source step
Supplies reduced to   5.0258% Note: One successful source step
Supplies reduced to   7.5887% Note: One successful source step
Supplies reduced to  11.4330% Note: One successful source step
Supplies reduced to  17.1995% Note: One successful source step
Supplies reduced to  25.8493% Supplies reduced to  17.1995% Note: One successful source step
Supplies reduced to  18.1995% Note: One successful source step
Supplies reduced to  19.6995% Note: One successful source step
Supplies reduced to  21.9495% Note: One successful source step
Supplies reduced to  25.3245% Note: One successful source step
Supplies reduced to  30.3870% Supplies reduced to  25.3245% Note: One successful source step
Supplies reduced to  25.5776% Note: One successful source step
Supplies reduced to  25.9573% Note: One successful source step
Supplies reduced to  26.5269% Note: One successful source step
Supplies reduced to  27.3812% Note: One successful source step
Supplies reduced to  28.6626% Note: One successful source step
Supplies reduced to  30.5848% Note: One successful source step
Supplies reduced to  33.4680% Note: One successful source step
Supplies reduced to  37.7929% Note: One successful source step
Supplies reduced to  44.2802% Note: One successful source step
Supplies reduced to  54.0112% Note: One successful source step
Supplies reduced to  63.7422% Supplies reduced to  54.0112% Note: One successful source step
Supplies reduced to  55.0112% Note: One successful source step
Supplies reduced to  56.5112% Note: One successful source step
Supplies reduced to  58.7612% Note: One successful source step
Supplies reduced to  62.1362% Supplies reduced to  58.7612% Note: One successful source step
Supplies reduced to  59.2674% Note: One successful source step
Supplies reduced to  60.0268% Note: One successful source step
Supplies reduced to  61.1659% Supplies reduced to  60.0268% Note: One successful source step
Supplies reduced to  60.1977% Note: One successful source step
Supplies reduced to  60.4540% Note: One successful source step
Supplies reduced to  60.8384% Supplies reduced to  60.4540% Note: One successful source step
Supplies reduced to  60.5116% Note: One successful source step
Supplies reduced to  60.5981% Note: One successful source step
Supplies reduced to  60.7279% Supplies reduced to  60.5981% Note: One successful source step
Supplies reduced to  60.6176% Note: One successful source step
Supplies reduced to  60.6468% Note: One successful source step
Supplies reduced to  60.6906% Supplies reduced to  60.6468% Note: One successful source step
Supplies reduced to  60.6533% Note: One successful source step
Supplies reduced to  60.6632% Note: One successful source step
Supplies reduced to  60.6780% Supplies reduced to  60.6632% Note: One successful source step
Supplies reduced to  60.6654% Note: One successful source step
Supplies reduced to  60.6687% Note: One successful source step
Supplies reduced to  60.6737% Note: One successful source step
Supplies reduced to  60.6812% Supplies reduced to  60.6737% Note: One successful source step
Supplies reduced to  60.6749% Supplies reduced to  60.6737% Note: One successful source step
Supplies reduced to  60.6739% Note: One successful source step
Supplies reduced to  60.6742% Note: One successful source step
Supplies reduced to  60.6745% Supplies reduced to  60.6742% Note: One successful source step
Supplies reduced to  60.6742% Warning: source stepping failed
doAnalyses: Too many iterations without convergence

dc simulation(s) aborted
Error(parse.c--checkvalid): vldo_sup_2_8: zero length vector.
Error: RHS "abs((vldo_sup_2_8-vldo_sup_2)/0.8)" invalid
Error(parse.c--checkvalid): line_reg: zero length vector.
Error(parse.c--checkvalid): vin: zero length vector.
Error: RHS "vin-1.764" invalid
Error(parse.c--checkvalid): dropout: zero length vector.
Error: no such vector dropout
Note: No ".plot", ".print", or ".fourier" lines; no simulations run

Error: measure  pm  (AT) : out of interval
 meas ac pm find p when vdb(ldo_out)=0 failed!

Doing analysis at TEMP = 85.000000 and TNOM = 27.000000


No. of Data Rows : 91
psrr100             =  -4.609139e+01
psrr100k            =  -2.605769e+01
Doing analysis at TEMP = 85.000000 and TNOM = 27.000000


No. of Data Rows : 86
temp_coeff = 6.050954e+01
Doing analysis at TEMP = 85.000000 and TNOM = 27.000000


Error: measure  vldo_sup_2  (AT) : out of interval
 meas dc vldo_sup_2 find ldo_out at=2 failed!


Error: measure  vldo_sup_2_8  (AT) : out of interval
 meas dc vldo_sup_2_8 find ldo_out at=2.8 failed!


Error: measure  vin  (WHEN) : out of interval
 meas dc vin when v(ldo_out)=1.764 failed!

