Note: Starting true gmin stepping
Trying gmin =   1.0000E-03 Note: One successful gmin step
Trying gmin =   1.0000E-04 Note: One successful gmin step
Trying gmin =   1.0000E-05 Note: One successful gmin step
Trying gmin =   1.0000E-06 Note: One successful gmin step
Trying gmin =   1.0000E-07 Note: One successful gmin step
Trying gmin =   3.1623E-08 Warning: Further gmin increment
Trying gmin =   7.4989E-08 Note: One successful gmin step
Trying gmin =   5.6234E-08 Warning: Further gmin increment
Trying gmin =   6.9783E-08 Note: One successful gmin step
Trying gmin =   6.2643E-08 Note: One successful gmin step
Trying gmin =   5.3280E-08 Note: One successful gmin step
Trying gmin =   4.9137E-08 Note: One successful gmin step
Trying gmin =   4.3518E-08 Note: One successful gmin step
Trying gmin =   3.6272E-08 Note: One successful gmin step
Trying gmin =   2.7601E-08 Note: One successful gmin step
Trying gmin =   1.8321E-08 Note: One successful gmin step
Trying gmin =   9.9077E-09 Note: One successful gmin step
Trying gmin =   3.9402E-09 Note: One successful gmin step
Trying gmin =   9.8819E-10 Note: One successful gmin step
Trying gmin =   1.2412E-10 Note: One successful gmin step
Trying gmin =   1.2412E-11 Note: One successful gmin step
Trying gmin =   1.2412E-12 Note: One successful gmin step
Trying gmin =   1.0000E-12 Note: One successful gmin step
Note: True gmin stepping completed
 Reference value :  0.00000e+00
No compatibility mode selected!


Circuit: * ldo netlist 

Doing analysis at TEMP = 0.000000 and TNOM = 27.000000


No. of Data Rows : 1
bg_out = 1.098344e+00
inn = 1.178880e+00
inp = 1.178806e+00
l1#branch = 0.000000e+00
ldo_out = 1.805417e+00
m.xm1.msky130_fd_pr__nfet_g5v0d10v5#body = 1.398396e-11
m.xm1.msky130_fd_pr__nfet_g5v0d10v5#dbody = 3.036640e-11
m.xm1.msky130_fd_pr__nfet_g5v0d10v5#sbody = 1.158548e-11
m.xm2.msky130_fd_pr__pfet_g5v0d10v5#body = 2.100000e+00
m.xm2.msky130_fd_pr__pfet_g5v0d10v5#dbody = 2.100000e+00
m.xm2.msky130_fd_pr__pfet_g5v0d10v5#sbody = 2.100000e+00
m.xm3.msky130_fd_pr__pfet_g5v0d10v5#body = 2.100000e+00
m.xm3.msky130_fd_pr__pfet_g5v0d10v5#dbody = 2.100000e+00
m.xm3.msky130_fd_pr__pfet_g5v0d10v5#sbody = 2.100000e+00
m.xm4.msky130_fd_pr__pfet_g5v0d10v5#body = 2.100000e+00
m.xm4.msky130_fd_pr__pfet_g5v0d10v5#dbody = 2.100000e+00
m.xm4.msky130_fd_pr__pfet_g5v0d10v5#sbody = 2.100000e+00
m.xm5.msky130_fd_pr__pfet_g5v0d10v5#body = 2.100000e+00
m.xm5.msky130_fd_pr__pfet_g5v0d10v5#dbody = 2.100000e+00
m.xm5.msky130_fd_pr__pfet_g5v0d10v5#sbody = 2.100000e+00
m.xm6.msky130_fd_pr__nfet_g5v0d10v5#body = 1.267930e-11
m.xm6.msky130_fd_pr__nfet_g5v0d10v5#dbody = 3.169825e-11
m.xm6.msky130_fd_pr__nfet_g5v0d10v5#sbody = 6.339656e-12
m.xm7.msky130_fd_pr__pfet_g5v0d10v5#body = 2.100000e+00
m.xm7.msky130_fd_pr__pfet_g5v0d10v5#dbody = 2.100000e+00
m.xm7.msky130_fd_pr__pfet_g5v0d10v5#sbody = 2.100000e+00
m.xm8.msky130_fd_pr__pfet_g5v0d10v5#body = 2.100000e+00
m.xm8.msky130_fd_pr__pfet_g5v0d10v5#dbody = 2.100000e+00
m.xm8.msky130_fd_pr__pfet_g5v0d10v5#sbody = 2.100000e+00
m.xm9.msky130_fd_pr__nfet_g5v0d10v5#body = 1.443710e-11
m.xm9.msky130_fd_pr__nfet_g5v0d10v5#dbody = 3.315387e-11
m.xm9.msky130_fd_pr__nfet_g5v0d10v5#sbody = 1.015742e-11
m.xm10.msky130_fd_pr__nfet_g5v0d10v5#body = 1.404347e-11
m.xm10.msky130_fd_pr__nfet_g5v0d10v5#dbody = 3.216980e-11
m.xm10.msky130_fd_pr__nfet_g5v0d10v5#sbody = 9.960605e-12
m.xm11.msky130_fd_pr__pfet_g5v0d10v5#body = 2.100000e+00
m.xm11.msky130_fd_pr__pfet_g5v0d10v5#dbody = 2.100000e+00
m.xm11.msky130_fd_pr__pfet_g5v0d10v5#sbody = 2.100000e+00
m.xm12.msky130_fd_pr__pfet_g5v0d10v5#body = 2.100000e+00
m.xm12.msky130_fd_pr__pfet_g5v0d10v5#dbody = 2.100000e+00
m.xm12.msky130_fd_pr__pfet_g5v0d10v5#sbody = 2.100000e+00
m.xm13.msky130_fd_pr__nfet_g5v0d10v5#body = 1.469416e-12
m.xm13.msky130_fd_pr__nfet_g5v0d10v5#dbody = 3.673531e-12
m.xm13.msky130_fd_pr__nfet_g5v0d10v5#sbody = 7.347163e-13
m.xm14.msky130_fd_pr__pfet_g5v0d10v5#body = 2.100000e+00
m.xm14.msky130_fd_pr__pfet_g5v0d10v5#dbody = 2.100000e+00
m.xm14.msky130_fd_pr__pfet_g5v0d10v5#sbody = 2.100000e+00
m.xm15.msky130_fd_pr__nfet_g5v0d10v5#body = 2.725260e-16
m.xm15.msky130_fd_pr__nfet_g5v0d10v5#dbody = 6.813087e-16
m.xm15.msky130_fd_pr__nfet_g5v0d10v5#sbody = 1.362691e-16
m.xm16.msky130_fd_pr__nfet_g5v0d10v5#body = 4.098612e-11
m.xm16.msky130_fd_pr__nfet_g5v0d10v5#dbody = 7.299318e-11
m.xm16.msky130_fd_pr__nfet_g5v0d10v5#sbody = 4.996517e-11
m.xm17.msky130_fd_pr__pfet_g5v0d10v5#body = 2.100000e+00
m.xm17.msky130_fd_pr__pfet_g5v0d10v5#dbody = 2.100000e+00
m.xm17.msky130_fd_pr__pfet_g5v0d10v5#sbody = 2.100000e+00
m.xm18.msky130_fd_pr__nfet_g5v0d10v5#body = 1.691629e-11
m.xm18.msky130_fd_pr__nfet_g5v0d10v5#dbody = 4.228996e-11
m.xm18.msky130_fd_pr__nfet_g5v0d10v5#sbody = 8.458154e-12
m.xm19.msky130_fd_pr__nfet_g5v0d10v5#body = 1.409594e-11
m.xm19.msky130_fd_pr__nfet_g5v0d10v5#dbody = 3.064636e-11
m.xm19.msky130_fd_pr__nfet_g5v0d10v5#sbody = 1.164148e-11
m.xm20.msky130_fd_pr__nfet_g5v0d10v5#body = 1.330930e-11
m.xm20.msky130_fd_pr__nfet_g5v0d10v5#dbody = 3.327324e-11
m.xm20.msky130_fd_pr__nfet_g5v0d10v5#sbody = 6.654662e-12
m.xm22.msky130_fd_pr__nfet_g5v0d10v5#body = 2.296788e-12
m.xm22.msky130_fd_pr__nfet_g5v0d10v5#dbody = 5.741965e-12
m.xm22.msky130_fd_pr__nfet_g5v0d10v5#sbody = 1.148398e-12
m.xm24.msky130_fd_pr__pfet_g5v0d10v5#body = 2.100000e+00
m.xm24.msky130_fd_pr__pfet_g5v0d10v5#dbody = 2.100000e+00
m.xm24.msky130_fd_pr__pfet_g5v0d10v5#sbody = 2.100000e+00
m.xm26.msky130_fd_pr__pfet_g5v0d10v5#body = 2.100000e+00
m.xm26.msky130Note: Starting true gmin stepping
Trying gmin =   1.0000E-03 Note: One successful gmin step
Trying gmin =   1.0000E-04 Note: One successful gmin step
Trying gmin =   1.0000E-05 Note: One successful gmin step
Trying gmin =   1.0000E-06 Note: One successful gmin step
Trying gmin =   1.0000E-07 Note: One successful gmin step
Trying gmin =   3.1623E-08 Warning: Further gmin increment
Trying gmin =   7.4989E-08 Note: One successful gmin step
Trying gmin =   5.6234E-08 Warning: Further gmin increment
Trying gmin =   6.9783E-08 Note: One successful gmin step
Trying gmin =   6.2643E-08 Note: One successful gmin step
Trying gmin =   5.3280E-08 Note: One successful gmin step
Trying gmin =   4.9137E-08 Note: One successful gmin step
Trying gmin =   4.3518E-08 Note: One successful gmin step
Trying gmin =   3.6272E-08 Note: One successful gmin step
Trying gmin =   2.7601E-08 Note: One successful gmin step
Trying gmin =   1.8321E-08 Note: One successful gmin step
Trying gmin =   9.9077E-09 Note: One successful gmin step
Trying gmin =   3.9402E-09 Note: One successful gmin step
Trying gmin =   9.8819E-10 Note: One successful gmin step
Trying gmin =   1.2412E-10 Note: One successful gmin step
Trying gmin =   1.2412E-11 Note: One successful gmin step
Trying gmin =   1.2412E-12 Note: One successful gmin step
Trying gmin =   1.0000E-12 Note: One successful gmin step
Note: True gmin stepping completed
_fd_pr__pfet_g5v0d10v5#dbody = 2.100000e+00
m.xm26.msky130_fd_pr__pfet_g5v0d10v5#sbody = 2.100000e+00
mir = 9.349721e-01
net1 = 7.699860e-01
net2 = 2.178911e-05
net3 = 8.236151e-01
net4 = 1.837353e-01
net5 = 9.439307e-01
net6 = 1.014336e+00
net7 = 8.235400e-01
net8 = 1.005920e+00
net9 = 1.037410e+00
net10 = 1.175515e-01
net11 = 1.353271e+00
net12 = 1.353271e+00
net13 = 0.000000e+00
out = 1.353271e+00
pos = 1.098644e+00
q.xq2.qsky130_fd_pr__pnp_05v5_w0p68l0p68#collcx = 1.852568e-03
q.xq3.qsky130_fd_pr__pnp_05v5_w0p68l0p68#collcx = 2.331894e-04
q.xq4.qsky130_fd_pr__pnp_05v5_w0p68l0p68#collcx = 2.331894e-04
q.xq8.qsky130_fd_pr__pnp_05v5_w0p68l0p68#collcx = 2.331894e-04
q.xq10.qsky130_fd_pr__pnp_05v5_w0p68l0p68#collcx = 2.331894e-04
q.xq12.qsky130_fd_pr__pnp_05v5_w0p68l0p68#collcx = 2.331894e-04
q.xq14.qsky130_fd_pr__pnp_05v5_w0p68l0p68#collcx = 2.331894e-04
q.xq16.qsky130_fd_pr__pnp_05v5_w0p68l0p68#collcx = 2.331894e-04
q.xq18.qsky130_fd_pr__pnp_05v5_w0p68l0p68#collcx = 2.331894e-04
vb = 1.064742e+00
vdd = 2.100000e+00
vs#branch = -1.69868e-04
vt#branch = 0.000000e+00
xc1.a = 0.000000e+00
xc1.b1 = 0.000000e+00
xc3.a = 1.353271e+00
xc3.b1 = 1.353271e+00
xr1.xsky130_fd_pr__res_xhigh_po_0p69.ra = 8.287854e-01
xr2.xsky130_fd_pr__res_xhigh_po_0p69.ra = 8.288604e-01
xr3.xsky130_fd_pr__res_xhigh_po_0p69.ra = 3.820941e-03
xr4.xsky130_fd_pr__res_xhigh_po_0p69.ra = 7.715294e-01
xr5.xsky130_fd_pr__res_xhigh_po_0p69.ra = 3.820569e-03
xr6.xsky130_fd_pr__res_xhigh_po_0p69.ra = 5.580871e-03
xr7.xsky130_fd_pr__res_xhigh_po_0p69.ra = 1.353271e+00
xr8.xsky130_fd_pr__res_xhigh_po_0p69.ra = 1.107125e+00
xr9.xsky130_fd_pr__res_xhigh_po_0p69.ra = 8.756009e-03
Doing analysis at TEMP = 0.000000 and TNOM = 27.000000


No. of Data Rows : 91
Note: Starting true gmin stepping
Trying gmin =   1.0000E-03 Note: One successful gmin step
Trying gmin =   1.0000E-04 Note: One successful gmin step
Trying gmin =   1.0000E-05 Note: One successful gmin step
Trying gmin =   1.0000E-06 Note: One successful gmin step
Trying gmin =   1.0000E-07 Note: One successful gmin step
Trying gmin =   3.1623E-08 Warning: Further gmin increment
Trying gmin =   7.4989E-08 Note: One successful gmin step
Trying gmin =   5.6234E-08 Warning: Further gmin increment
Trying gmin =   6.9783E-08 Note: One successful gmin step
Trying gmin =   6.2643E-08 Note: One successful gmin step
Trying gmin =   5.3280E-08 Note: One successful gmin step
Trying gmin =   4.9137E-08 Note: One successful gmin step
Trying gmin =   4.3518E-08 Note: One successful gmin step
Trying gmin =   3.6272E-08 Note: One successful gmin step
Trying gmin =   2.7601E-08 Note: One successful gmin step
Trying gmin =   1.8321E-08 Note: One successful gmin step
Trying gmin =   9.9077E-09 Note: One successful gmin step
Trying gmin =   3.9402E-09 Note: One successful gmin step
Trying gmin =   9.8819E-10 Note: One successful gmin step
Trying gmin =   1.2412E-10 Note: One successful gmin step
Trying gmin =   1.2412E-11 Note: One successful gmin step
Trying gmin =   1.2412E-12 Note: One successful gmin step
Trying gmin =   1.0000E-12 Note: One successful gmin step
Note: True gmin stepping completed
 Reference value :  1.00000e+00Note: Starting true gmin stepping
Trying gmin =   1.0000E-03 Note: One successful gmin step
Trying gmin =   1.0000E-04 Note: One successful gmin step
Trying gmin =   1.0000E-05 Note: One successful gmin step
Trying gmin =   1.0000E-06 Note: One successful gmin step
Trying gmin =   1.0000E-07 Warning: Further gmin increment
Trying gmin =   5.6234E-07 Note: One successful gmin step
Trying gmin =   2.3714E-07 Note: One successful gmin step
Trying gmin =   6.4938E-08 Warning: Further gmin increment
Trying gmin =   1.7154E-07 Note: One successful gmin step
Trying gmin =   1.0554E-07 Note: One successful gmin step
Trying gmin =   5.0937E-08 Warning: Further gmin increment
Trying gmin =   8.7970E-08 Note: One successful gmin step
Trying gmin =   6.6940E-08 Warning: Further gmin increment
Trying gmin =   8.2162E-08 Note: One successful gmin step
Trying gmin =   7.4161E-08 Note: One successful gmin step
Trying gmin =   6.3597E-08 Warning: Further gmin increment
Trying gmin =   7.1366E-08 Warning: Further gmin increment
Trying gmin =   7.3453E-08 Note: One successful gmin step
Trying gmin =   7.2750E-08 Note: One successful gmin step
Trying gmin =   7.1710E-08 Note: One successful gmin step
Trying gmin =   7.0177E-08 Note: One successful gmin step
Trying gmin =   6.7938E-08 Note: One successful gmin step
Trying gmin =   6.4714E-08 Note: One successful gmin step
Trying gmin =   6.0162E-08 Note: One successful gmin step
Trying gmin =   5.3927E-08 Note: One successful gmin step
Trying gmin =   4.5765E-08 Note: One successful gmin step
Trying gmin =   3.5779E-08 Note: One successful gmin step
Trying gmin =   2.4732E-08 Note: One successful gmin step
Trying gmin =   1.4214E-08 Note: One successful gmin step
Trying gmin =   6.1931E-09 Note: One successful gmin step
Trying gmin =   1.7811E-09 Note: One successful gmin step
Trying gmin =   2.7470E-10 Note: One successful gmin step
Trying gmin =   2.7470E-11 Note: One successful gmin step
Trying gmin =   2.7470E-12 Note: One successful gmin step
Trying gmin =   1.0000E-12 Note: One successful gmin step
Note: True gmin stepping completed
 Reference value :  2.80000e+00Note: Starting true gmin stepping
Trying gmin =   1.0000E-03 Note: One successful gmin step
Trying gmin =   1.0000E-04 Note: One successful gmin step
Trying gmin =   1.0000E-05 Note: One successful gmin step
Trying gmin =   1.0000E-06 Note: One successful gmin step
Trying gmin =   1.0000E-07 Note: One successful gmin step
Trying gmin =   1.0000E-08 Note: One successful gmin step
Trying gmin =   1.0000E-09 Note: One successful gmin step
Trying gmin =   1.0000E-10 Note: One successful gmin step
Trying gmin =   1.0000E-11 Note: One successful gmin step
Trying gmin =   1.0000E-12 Warning: Further gmin increment
Trying gmin =   5.6234E-12 Note: One successful gmin step
Trying gmin =   2.3714E-12 Warning: Further gmin increment
Trying gmin =   4.5316E-12 Note: One successful gmin step
Trying gmin =   3.2781E-12 Note: One successful gmin step
Trying gmin =   2.0169E-12 Warning: Further gmin increment
Trying gmin =   2.9033E-12 Note: One successful gmin step
Trying gmin =   2.4199E-12 Note: One successful gmin step
Trying gmin =   2.0169E-12 Note: One successful gmin step
Trying gmin =   1.5347E-12 Note: One successful gmin step
Trying gmin =   1.0187E-12 Note: One successful gmin step
Trying gmin =   1.0000E-12 Note: One successful gmin step
Note: True gmin stepping completed
 Reference value :  1.20000e+00Note: Starting true gmin stepping
Trying gmin =   1.0000E-03 Note: One successful gmin step
Trying gmin =   1.0000E-04 Note: One successful gmin step
Trying gmin =   1.0000E-05 Note: One successful gmin step
Trying gmin =   1.0000E-06 Note: One successful gmin step
Trying gmin =   1.0000E-07 Note: One successful gmin step
Trying gmin =   1.0000E-08 Note: One successful gmin step
Trying gmin =   1.0000E-09 Note: One successful gmin step
Trying gmin =   1.0000E-10 Note: One successful gmin step
Trying gmin =   1.0000E-11 Note: One successful gmin step
Trying gmin =   1.0000E-12 Warning: Further gmin increment
Trying gmin =   5.6234E-12 Note: One successful gmin step
Trying gmin =   2.3714E-12 Note: One successful gmin step
Trying gmin =   1.0000E-12 Warning: Further gmin increment
Trying gmin =   1.9110E-12 Warning: Further gmin increment
Trying gmin =   2.2468E-12 Note: One successful gmin step
Trying gmin =   2.0721E-12 Error: -1.53479e+189, 2 out of range for ^
Warning: Further gmin increment
Trying gmin =   2.2018E-12 Note: One successful gmin step
Trying gmin =   2.1796E-12 Note: One successful gmin step
Trying gmin =   2.1468E-12 Note: One successful gmin step
Trying gmin =   2.1144E-12 Warning: Further gmin increment
Trying gmin =   2.1386E-12 Note: One successful gmin step
Trying gmin =   2.1265E-12 Warning: Further gmin increment
Trying gmin =   2.1356E-12 Note: One successful gmin step
Trying gmin =   2.1326E-12 Note: One successful gmin step
Trying gmin =   2.1280E-12 Note: One successful gmin step
Trying gmin =   2.1212E-12 Note: One successful gmin step
Trying gmin =   2.1111E-12 Note: One successful gmin step
Trying gmin =   2.0959E-12 Note: One successful gmin step
Trying gmin =   2.0734E-12 Note: One successful gmin step
Trying gmin =   2.0400E-12 Note: One successful gmin step
Trying gmin =   1.9910E-12 Note: One successful gmin step
Trying gmin =   1.9197E-12 Note: One successful gmin step
Trying gmin =   1.8175E-12 Note: One successful gmin step
Trying gmin =   1.6744E-12 Note: One successful gmin step
Trying gmin =   1.4805E-12 Note: One successful gmin step
Trying gmin =   1.2309E-12 Note: One successful gmin step
Trying gmin =   1.0000E-12 Note: One successful gmin step
Note: True gmin stepping completed
 Reference value :  1.18000e+00pm                  =  6.832580e+01
Doing analysis at TEMP = 0.000000 and TNOM = 27.000000


No. of Data Rows : 91
psrr100             =  -5.423889e+01
psrr100k            =  -2.691059e+01
Doing analysis at TEMP = 0.000000 and TNOM = 27.000000


No. of Data Rows : 86
temp_coeff = 2.802008e+01
Doing analysis at TEMP = 0.000000 and TNOM = 27.000000


No. of Data Rows : 141
vldo_sup_2          =  1.805631e+00
vldo_sup_2_8        =  1.804620e+00
line_reg = 1.263750e-03
Note: No ".plot", ".print", or ".fourier" lines; no simulations run
vin                 =  1.764093e+00
dropout = 9.300000e-05
