 Reference value :  0.00000e+00
No compatibility mode selected!


Circuit: * ldo netlist 

Doing analysis at TEMP = 27.000000 and TNOM = 27.000000


No. of Data Rows : 1
bg_out = 1.192588e+00
inn = 1.222550e+00
inp = 1.222542e+00
l1#branch = 0.000000e+00
ldo_out = 1.793282e+00
m.xm1.msky130_fd_pr__nfet_g5v0d10v5#body = 1.917792e-11
m.xm1.msky130_fd_pr__nfet_g5v0d10v5#dbody = 3.940742e-11
m.xm1.msky130_fd_pr__nfet_g5v0d10v5#sbody = 1.812635e-11
m.xm2.msky130_fd_pr__pfet_g5v0d10v5#body = 2.500000e+00
m.xm2.msky130_fd_pr__pfet_g5v0d10v5#dbody = 2.500000e+00
m.xm2.msky130_fd_pr__pfet_g5v0d10v5#sbody = 2.500000e+00
m.xm3.msky130_fd_pr__pfet_g5v0d10v5#body = 2.500000e+00
m.xm3.msky130_fd_pr__pfet_g5v0d10v5#dbody = 2.500000e+00
m.xm3.msky130_fd_pr__pfet_g5v0d10v5#sbody = 2.500000e+00
m.xm4.msky130_fd_pr__pfet_g5v0d10v5#body = 2.500000e+00
m.xm4.msky130_fd_pr__pfet_g5v0d10v5#dbody = 2.500000e+00
m.xm4.msky130_fd_pr__pfet_g5v0d10v5#sbody = 2.500000e+00
m.xm5.msky130_fd_pr__pfet_g5v0d10v5#body = 2.500000e+00
m.xm5.msky130_fd_pr__pfet_g5v0d10v5#dbody = 2.500000e+00
m.xm5.msky130_fd_pr__pfet_g5v0d10v5#sbody = 2.500000e+00
m.xm6.msky130_fd_pr__nfet_g5v0d10v5#body = 1.107079e-11
m.xm6.msky130_fd_pr__nfet_g5v0d10v5#dbody = 2.767698e-11
m.xm6.msky130_fd_pr__nfet_g5v0d10v5#sbody = 5.535402e-12
m.xm7.msky130_fd_pr__pfet_g5v0d10v5#body = 2.500000e+00
m.xm7.msky130_fd_pr__pfet_g5v0d10v5#dbody = 2.500000e+00
m.xm7.msky130_fd_pr__pfet_g5v0d10v5#sbody = 2.500000e+00
m.xm8.msky130_fd_pr__pfet_g5v0d10v5#body = 2.500000e+00
m.xm8.msky130_fd_pr__pfet_g5v0d10v5#dbody = 2.500000e+00
m.xm8.msky130_fd_pr__pfet_g5v0d10v5#sbody = 2.500000e+00
m.xm9.msky130_fd_pr__nfet_g5v0d10v5#body = 1.982523e-11
m.xm9.msky130_fd_pr__nfet_g5v0d10v5#dbody = 4.188614e-11
m.xm9.msky130_fd_pr__nfet_g5v0d10v5#sbody = 1.758955e-11
m.xm10.msky130_fd_pr__nfet_g5v0d10v5#body = 1.965958e-11
m.xm10.msky130_fd_pr__nfet_g5v0d10v5#dbody = 4.147202e-11
m.xm10.msky130_fd_pr__nfet_g5v0d10v5#sbody = 1.750673e-11
m.xm11.msky130_fd_pr__pfet_g5v0d10v5#body = 2.500000e+00
m.xm11.msky130_fd_pr__pfet_g5v0d10v5#dbody = 2.500000e+00
m.xm11.msky130_fd_pr__pfet_g5v0d10v5#sbody = 2.500000e+00
m.xm12.msky130_fd_pr__pfet_g5v0d10v5#body = 2.500000e+00
m.xm12.msky130_fd_pr__pfet_g5v0d10v5#dbody = 2.500000e+00
m.xm12.msky130_fd_pr__pfet_g5v0d10v5#sbody = 2.500000e+00
m.xm13.msky130_fd_pr__nfet_g5v0d10v5#body = 3.837111e-12
m.xm13.msky130_fd_pr__nfet_g5v0d10v5#dbody = 9.592767e-12
m.xm13.msky130_fd_pr__nfet_g5v0d10v5#sbody = 1.918566e-12
m.xm14.msky130_fd_pr__pfet_g5v0d10v5#body = 2.500000e+00
m.xm14.msky130_fd_pr__pfet_g5v0d10v5#dbody = 2.500000e+00
m.xm14.msky130_fd_pr__pfet_g5v0d10v5#sbody = 2.500000e+00
m.xm15.msky130_fd_pr__nfet_g5v0d10v5#body = 2.356048e-16
m.xm15.msky130_fd_pr__nfet_g5v0d10v5#dbody = 5.889894e-16
m.xm15.msky130_fd_pr__nfet_g5v0d10v5#sbody = 1.178250e-16
m.xm16.msky130_fd_pr__nfet_g5v0d10v5#body = 4.654051e-11
m.xm16.msky130_fd_pr__nfet_g5v0d10v5#dbody = 8.577889e-11
m.xm16.msky130_fd_pr__nfet_g5v0d10v5#sbody = 5.384264e-11
m.xm17.msky130_fd_pr__pfet_g5v0d10v5#body = 2.500000e+00
m.xm17.msky130_fd_pr__pfet_g5v0d10v5#dbody = 2.500000e+00
m.xm17.msky130_fd_pr__pfet_g5v0d10v5#sbody = 2.500000e+00
m.xm18.msky130_fd_pr__nfet_g5v0d10v5#body = 1.633255e-11
m.xm18.msky130_fd_pr__nfet_g5v0d10v5#dbody = 4.083114e-11
m.xm18.msky130_fd_pr__nfet_g5v0d10v5#sbody = 8.166285e-12
m.xm19.msky130_fd_pr__nfet_g5v0d10v5#body = 1.919166e-11
m.xm19.msky130_fd_pr__nfet_g5v0d10v5#dbody = 3.944177e-11
m.xm19.msky130_fd_pr__nfet_g5v0d10v5#sbody = 1.813322e-11
m.xm20.msky130_fd_pr__nfet_g5v0d10v5#body = 1.098794e-11
m.xm20.msky130_fd_pr__nfet_g5v0d10v5#dbody = 2.746983e-11
m.xm20.msky130_fd_pr__nfet_g5v0d10v5#sbody = 5.493981e-12
m.xm22.msky130_fd_pr__nfet_g5v0d10v5#body = 4.271408e-12
m.xm22.msky130_fd_pr__nfet_g5v0d10v5#dbody = 1.067851e-11
m.xm22.msky130_fd_pr__nfet_g5v0d10v5#sbody = 2.135708e-12
m.xm24.msky130_fd_pr__pfet_g5v0d10v5#body = 2.500000e+00
m.xm24.msky130_fd_pr__pfet_g5v0d10v5#dbody = 2.500000e+00
m.xm24.msky130_fd_pr__pfet_g5v0d10v5#sbody = 2.500000e+00
m.xm26.msky130_fd_pr__pfet_g5v0d10v5#body = 2.500000e+00
m.xm26.msky130_fd_pr__pfet_g5v0d10v5#dbody = 2.500000e+00
m.xm26.msky130_fd_pr__pfet_g5v0d10v5#sbody = 2.500000e+00
mir = 1.192393e+00
net1 = 7.251400e-01
net2 = 1.812959e-05
net3 = 7.846919e-01
net4 = 3.411503e-01
net5 = 1.193492e+00
net6 = 8.851011e-01
net7 = 7.846831e-01
net8 = 1.265453e+00
net9 = 1.278704e+00
net10 = 3.068407e-01
net11 = 1.306467e+00
net12 = 1.306467e+00
net13 = 0.000000e+00
out = 1.306467e+00
pos = 1.192711e+00
q.xq2.qsky130_fd_pr__pnp_05v5_w0p68l0p68#collcx = 2.094737e-03
q.xq3.qsky130_fd_pr__pnp_05v5_w0p68l0p68#collcx = 2.637689e-04
q.xq4.qsky130_fd_pr__pnp_05v5_w0p68l0p68#collcx = 2.637689e-04
q.xq8.qsky130_fd_pr__pnp_05v5_w0p68l0p68#collcx = 2.637689e-04
q.xq10.qsky130_fd_pr__pnp_05v5_w0p68l0p68#collcx = 2.637689e-04
q.xq12.qsky130_fd_pr__pnp_05v5_w0p68l0p68#collcx = 2.637689e-04
q.xq14.qsky130_fd_pr__pnp_05v5_w0p68l0p68#collcx = 2.637689e-04
q.xq16.qsky130_fd_pr__pnp_05v5_w0p68l0p68#collcx = 2.637689e-04
q.xq18.qsky130_fd_pr__pnp_05v5_w0p68l0p68#collcx = 2.637689e-04
vb = 8.789068e-01
vdd = 2.500000e+00
vs#branch = -1.00847e-02
vt#branch = 0.000000e+00
xc1.a = 0.000000e+00
xc1.b1 = 0.000000e+00
xc3.a = 1.306467e+00
xc3.b1 = 1.306467e+00
xr1.xsky130_fd_pr__res_xhigh_po_0p69.ra = 7.922317e-01
xr2.xsky130_fd_pr__res_xhigh_po_0p69.ra = 7.922405e-01
xr3.xsky130_fd_pr__res_xhigh_po_0p69.ra = 5.108850e-03
xr4.xsky130_fd_pr__res_xhigh_po_0p69.ra = 7.276782e-01
xr5.xsky130_fd_pr__res_xhigh_po_0p69.ra = 5.108789e-03
xr6.xsky130_fd_pr__res_xhigh_po_0p69.ra = 8.022781e-03
xr7.xsky130_fd_pr__res_xhigh_po_0p69.ra = 1.306467e+00
xr8.xsky130_fd_pr__res_xhigh_po_0p69.ra = 1.206059e+00
xr9.xsky130_fd_pr__res_xhigh_po_0p69.ra = 1.399852e-02
Doing analysis at TEMP = 27.000000 and TNOM = 27.000000


No. of Data Rows : 91
Note: Starting true gmin stepping
Trying gmin =   1.0000E-03 Note: One successful gmin step
Trying gmin =   1.0000E-04 Note: One successful gmin step
Trying gmin =   1.0000E-05 Note: One successful gmin step
Trying gmin =   1.0000E-06 Note: One successful gmin step
Trying gmin =   1.0000E-07 Warning: Further gmin increment
Trying gmin =   5.6234E-07 Note: One successful gmin step
Trying gmin =   2.3714E-07 Note: One successful gmin step
Trying gmin =   6.4938E-08 Note: One successful gmin step
Trying gmin =   9.3057E-09 Warning: Further gmin increment
Trying gmin =   3.9954E-08 Warning: Further gmin increment
Trying gmin =   5.7513E-08 Note: One successful gmin step
Trying gmin =   4.7936E-08 Note: One successful gmin step
Trying gmin =   3.6476E-08 Warning: Further gmin increment
Trying gmin =   4.4771E-08 Note: One successful gmin step
Trying gmin =   4.0412E-08 Note: One successful gmin step
Trying gmin =   3.4655E-08 Note: One successful gmin step
Trying gmin =   2.7520E-08 Note: One successful gmin step
Trying gmin =   1.9475E-08 Note: One successful gmin step
Trying gmin =   1.1594E-08 Note: One successful gmin step
Trying gmin =   5.3253E-09 Note: One successful gmin step
Trying gmin =   1.6578E-09 Note: One successful gmin step
Trying gmin =   2.8793E-10 Note: One successful gmin step
Trying gmin =   2.8793E-11 Note: One successful gmin step
Trying gmin =   2.8793E-12 Note: One successful gmin step
Trying gmin =   1.0000E-12 Note: One successful gmin step
Note: True gmin stepping completed
 Reference value :  1.52000e+00Note: Starting true gmin stepping
Trying gmin =   1.0000E-03 Note: One successful gmin step
Trying gmin =   1.0000E-04 Note: One successful gmin step
Trying gmin =   1.0000E-05 Note: One successful gmin step
Trying gmin =   1.0000E-06 Note: One successful gmin step
Trying gmin =   1.0000E-07 Warning: Further gmin increment
Trying gmin =   5.6234E-07 Note: One successful gmin step
Trying gmin =   2.3714E-07 Note: One successful gmin step
Trying gmin =   6.4938E-08 Note: One successful gmin step
Trying gmin =   9.3057E-09 Warning: Further gmin increment
Trying gmin =   3.9954E-08 Note: One successful gmin step
Trying gmin =   2.4582E-08 Note: One successful gmin step
Trying gmin =   1.1864E-08 Note: One successful gmin step
Trying gmin =   3.9775E-09 Note: One successful gmin step
Trying gmin =   7.7214E-10 Note: One successful gmin step
Trying gmin =   7.7214E-11 Note: One successful gmin step
Trying gmin =   7.7214E-12 Note: One successful gmin step
Trying gmin =   1.0000E-12 Note: One successful gmin step
Note: True gmin stepping completed
pm                  =  -1.028746e+02
Doing analysis at TEMP = 27.000000 and TNOM = 27.000000


No. of Data Rows : 91
psrr100             =  -8.776474e+01
psrr100k            =  -2.779222e+01
Doing analysis at TEMP = 27.000000 and TNOM = 27.000000


No. of Data Rows : 86
temp_coeff = 1.103899e+02
Doing analysis at TEMP = 27.000000 and TNOM = 27.000000


No. of Data Rows : 141
vldo_sup_2          =  1.793097e+00
vldo_sup_2_8        =  1.793288e+00
line_reg = 2.387500e-04
Note: No ".plot", ".print", or ".fourier" lines; no simulations run
vin                 =  1.786371e+00
dropout = 2.237100e-02
