Note: Starting true gmin stepping
Trying gmin =   1.0000E-03 Note: One successful gmin step
Trying gmin =   1.0000E-04 Note: One successful gmin step
Trying gmin =   1.0000E-05 Note: One successful gmin step
Trying gmin =   1.0000E-06 Warning: Further gmin increment
Trying gmin =   5.6234E-06 Note: One successful gmin step
Trying gmin =   2.3714E-06 Note: One successful gmin step
Trying gmin =   6.4938E-07 Warning: Further gmin increment
Trying gmin =   1.7154E-06 Warning: Further gmin increment
Trying gmin =   2.1870E-06 Note: One successful gmin step
Trying gmin =   1.9369E-06 Warning: Further gmin increment
Trying gmin =   2.1216E-06 Note: One successful gmin step
Trying gmin =   2.0271E-06 Note: One successful gmin step
Trying gmin =   1.8933E-06 Note: One successful gmin step
Trying gmin =   1.7089E-06 Note: One successful gmin step
Trying gmin =   1.4655E-06 Note: One successful gmin step
Trying gmin =   1.1638E-06 Note: One successful gmin step
Trying gmin =   8.2357E-07 Note: One successful gmin step
Trying gmin =   4.9029E-07 Note: One successful gmin step
Trying gmin =   2.2520E-07 Note: One successful gmin step
Trying gmin =   1.0344E-07 Note: One successful gmin step
Trying gmin =   3.2201E-08 Note: One successful gmin step
Trying gmin =   5.5928E-09 Note: One successful gmin step
Trying gmin =   5.5928E-10 Note: One successful gmin step
Trying gmin =   5.5928E-11 Note: One successful gmin step
Trying gmin =   5.5928E-12 Note: One successful gmin step
Trying gmin =   1.0000E-12 Note: One successful gmin step
Note: True gmin stepping completed
 Reference value :  0.00000e+00
No compatibility mode selected!


Circuit: * ldo netlist 

Doing analysis at TEMP = 0.000000 and TNOM = 27.000000


No. of Data Rows : 1
bg_out = 1.092858e+00
inn = 1.170494e+00
inp = 1.170483e+00
l1#branch = 0.000000e+00
ldo_out = 1.795634e+00
m.xm1.msky130_fd_pr__nfet_g5v0d10v5#body = 1.975712e-11
m.xm1.msky130_fd_pr__nfet_g5v0d10v5#dbody = 4.281127e-11
m.xm1.msky130_fd_pr__nfet_g5v0d10v5#sbody = 1.646009e-11
m.xm2.msky130_fd_pr__pfet_g5v0d10v5#body = 2.500000e+00
m.xm2.msky130_fd_pr__pfet_g5v0d10v5#dbody = 2.500000e+00
m.xm2.msky130_fd_pr__pfet_g5v0d10v5#sbody = 2.500000e+00
m.xm3.msky130_fd_pr__pfet_g5v0d10v5#body = 2.500000e+00
m.xm3.msky130_fd_pr__pfet_g5v0d10v5#dbody = 2.500000e+00
m.xm3.msky130_fd_pr__pfet_g5v0d10v5#sbody = 2.500000e+00
m.xm4.msky130_fd_pr__pfet_g5v0d10v5#body = 2.500000e+00
m.xm4.msky130_fd_pr__pfet_g5v0d10v5#dbody = 2.500000e+00
m.xm4.msky130_fd_pr__pfet_g5v0d10v5#sbody = 2.500000e+00
m.xm5.msky130_fd_pr__pfet_g5v0d10v5#body = 2.500000e+00
m.xm5.msky130_fd_pr__pfet_g5v0d10v5#dbody = 2.500000e+00
m.xm5.msky130_fd_pr__pfet_g5v0d10v5#sbody = 2.500000e+00
m.xm6.msky130_fd_pr__nfet_g5v0d10v5#body = 1.153165e-11
m.xm6.msky130_fd_pr__nfet_g5v0d10v5#dbody = 2.882913e-11
m.xm6.msky130_fd_pr__nfet_g5v0d10v5#sbody = 5.765832e-12
m.xm7.msky130_fd_pr__pfet_g5v0d10v5#body = 2.500000e+00
m.xm7.msky130_fd_pr__pfet_g5v0d10v5#dbody = 2.500000e+00
m.xm7.msky130_fd_pr__pfet_g5v0d10v5#sbody = 2.500000e+00
m.xm8.msky130_fd_pr__pfet_g5v0d10v5#body = 2.500000e+00
m.xm8.msky130_fd_pr__pfet_g5v0d10v5#dbody = 2.500000e+00
m.xm8.msky130_fd_pr__pfet_g5v0d10v5#sbody = 2.500000e+00
m.xm9.msky130_fd_pr__nfet_g5v0d10v5#body = 1.996701e-11
m.xm9.msky130_fd_pr__nfet_g5v0d10v5#dbody = 4.501671e-11
m.xm9.msky130_fd_pr__nfet_g5v0d10v5#sbody = 1.488426e-11
m.xm10.msky130_fd_pr__nfet_g5v0d10v5#body = 1.975422e-11
m.xm10.msky130_fd_pr__nfet_g5v0d10v5#dbody = 4.448476e-11
m.xm10.msky130_fd_pr__nfet_g5v0d10v5#sbody = 1.477786e-11
m.xm11.msky130_fd_pr__pfet_g5v0d10v5#body = 2.500000e+00
m.xm11.msky130_fd_pr__pfet_g5v0d10v5#dbody = 2.500000e+00
m.xm11.msky130_fd_pr__pfet_g5v0d10v5#sbody = 2.500000e+00
m.xm12.msky130_fd_pr__pfet_g5v0d10v5#body = 2.500000e+00
m.xm12.msky130_fd_pr__pfet_g5v0d10v5#dbody = 2.500000e+00
m.xm12.msky130_fd_pr__pfet_g5v0d10v5#sbody = 2.500000e+00
m.xm13.msky130_fd_pr__nfet_g5v0d10v5#body = 2.450357e-12
m.xm13.msky130_fd_pr__nfet_g5v0d10v5#dbody = 6.125882e-12
m.xm13.msky130_fd_pr__nfet_g5v0d10v5#sbody = 1.225188e-12
m.xm14.msky130_fd_pr__pfet_g5v0d10v5#body = 2.500000e+00
m.xm14.msky130_fd_pr__pfet_g5v0d10v5#dbody = 2.500000e+00
m.xm14.msky130_fd_pr__pfet_g5v0d10v5#sbody = 2.500000e+00
m.xm15.msky130_fd_pr__nfet_g5v0d10v5#body = 1.181043e-15
m.xm15.msky130_fd_pr__nfet_g5v0d10v5#dbody = 2.952521e-15
m.xm15.msky130_fd_pr__nfet_g5v0d10v5#sbody = 5.906063e-16
m.xm16.msky130_fd_pr__nfet_g5v0d10v5#body = 4.588130e-11
m.xm16.msky130_fd_pr__nfet_g5v0d10v5#dbody = 8.544077e-11
m.xm16.msky130_fd_pr__nfet_g5v0d10v5#sbody = 5.220312e-11
m.xm17.msky130_fd_pr__pfet_g5v0d10v5#body = 2.500000e+00
m.xm17.msky130_fd_pr__pfet_g5v0d10v5#dbody = 2.500000e+00
m.xm17.msky130_fd_pr__pfet_g5v0d10v5#sbody = 2.500000e+00
m.xm18.msky130_fd_pr__nfet_g5v0d10v5#body = 1.823838e-11
m.xm18.msky130_fd_pr__nfet_g5v0d10v5#dbody = 4.558375e-11
m.xm18.msky130_fd_pr__nfet_g5v0d10v5#sbody = 9.119202e-12
m.xm19.msky130_fd_pr__nfet_g5v0d10v5#body = 1.977855e-11
m.xm19.msky130_fd_pr__nfet_g5v0d10v5#dbody = 4.286486e-11
m.xm19.msky130_fd_pr__nfet_g5v0d10v5#sbody = 1.647080e-11
m.xm20.msky130_fd_pr__nfet_g5v0d10v5#body = 1.156821e-11
m.xm20.msky130_fd_pr__nfet_g5v0d10v5#dbody = 2.892050e-11
m.xm20.msky130_fd_pr__nfet_g5v0d10v5#sbody = 5.784114e-12
m.xm22.msky130_fd_pr__nfet_g5v0d10v5#body = 3.290799e-12
m.xm22.msky130_fd_pr__nfet_g5v0d10v5#dbody = 8.226994e-12
m.xm22.msky130_fd_pr__nfet_g5v0d10v5#sbody = 1.645404e-12
m.xm24.msky130_fd_pr__pfet_g5v0d10v5#body = 2.500000e+00
m.xm24.msky130_fd_pr__pfet_g5v0d10v5#dbody = 2.500000e+00
m.xm24.msky130_fd_pr__pfet_g5v0d10v5#sbody = 2.500000e+00
m.xm26.msky130_fd_pr__pfet_g5v0d10v5#body = 2.500000e+00
m.xm26.msky130Note: Starting true gmin stepping
Trying gmin =   1.0000E-03 Note: One successful gmin step
Trying gmin =   1.0000E-04 Note: One successful gmin step
Trying gmin =   1.0000E-05 Note: One successful gmin step
Trying gmin =   1.0000E-06 Warning: Further gmin increment
Trying gmin =   5.6234E-06 Note: One successful gmin step
Trying gmin =   2.3714E-06 Note: One successful gmin step
Trying gmin =   6.4938E-07 Warning: Further gmin increment
Trying gmin =   1.7154E-06 Warning: Further gmin increment
Trying gmin =   2.1870E-06 Note: One successful gmin step
Trying gmin =   1.9369E-06 Warning: Further gmin increment
Trying gmin =   2.1216E-06 Note: One successful gmin step
Trying gmin =   2.0271E-06 Note: One successful gmin step
Trying gmin =   1.8933E-06 Note: One successful gmin step
Trying gmin =   1.7089E-06 Note: One successful gmin step
Trying gmin =   1.4655E-06 Note: One successful gmin step
Trying gmin =   1.1638E-06 Note: One successful gmin step
Trying gmin =   8.2357E-07 Note: One successful gmin step
Trying gmin =   4.9029E-07 Note: One successful gmin step
Trying gmin =   2.2520E-07 Note: One successful gmin step
Trying gmin =   1.0344E-07 Note: One successful gmin step
Trying gmin =   3.2201E-08 Note: One successful gmin step
Trying gmin =   5.5928E-09 Note: One successful gmin step
Trying gmin =   5.5928E-10 Note: One successful gmin step
Trying gmin =   5.5928E-11 Note: One successful gmin step
Trying gmin =   5.5928E-12 Note: One successful gmin step
Trying gmin =   1.0000E-12 Note: One successful gmin step
Note: True gmin stepping completed
_fd_pr__pfet_g5v0d10v5#dbody = 2.500000e+00
m.xm26.msky130_fd_pr__pfet_g5v0d10v5#sbody = 2.500000e+00
mir = 1.317304e+00
net1 = 7.637518e-01
net2 = 9.442752e-05
net3 = 8.173697e-01
net4 = 2.632563e-01
net5 = 1.319019e+00
net6 = 9.225246e-01
net7 = 8.173578e-01
net8 = 1.384303e+00
net9 = 1.401325e+00
net10 = 1.960268e-01
net11 = 1.458581e+00
net12 = 1.458581e+00
net13 = 0.000000e+00
out = 1.458581e+00
pos = 1.092998e+00
q.xq2.qsky130_fd_pr__pnp_05v5_w0p68l0p68#collcx = 1.837530e-03
q.xq3.qsky130_fd_pr__pnp_05v5_w0p68l0p68#collcx = 2.306473e-04
q.xq4.qsky130_fd_pr__pnp_05v5_w0p68l0p68#collcx = 2.306473e-04
q.xq8.qsky130_fd_pr__pnp_05v5_w0p68l0p68#collcx = 2.306473e-04
q.xq10.qsky130_fd_pr__pnp_05v5_w0p68l0p68#collcx = 2.306473e-04
q.xq12.qsky130_fd_pr__pnp_05v5_w0p68l0p68#collcx = 2.306473e-04
q.xq14.qsky130_fd_pr__pnp_05v5_w0p68l0p68#collcx = 2.306473e-04
q.xq16.qsky130_fd_pr__pnp_05v5_w0p68l0p68#collcx = 2.306473e-04
q.xq18.qsky130_fd_pr__pnp_05v5_w0p68l0p68#collcx = 2.306473e-04
vb = 9.254545e-01
vdd = 2.500000e+00
vs#branch = -1.00938e-02
vt#branch = 0.000000e+00
xc1.a = 0.000000e+00
xc1.b1 = 0.000000e+00
xc3.a = 1.458581e+00
xc3.b1 = 1.458581e+00
xr1.xsky130_fd_pr__res_xhigh_po_0p69.ra = 8.247695e-01
xr2.xsky130_fd_pr__res_xhigh_po_0p69.ra = 8.247813e-01
xr3.xsky130_fd_pr__res_xhigh_po_0p69.ra = 5.379290e-03
xr4.xsky130_fd_pr__res_xhigh_po_0p69.ra = 7.659494e-01
xr5.xsky130_fd_pr__res_xhigh_po_0p69.ra = 5.379207e-03
xr6.xsky130_fd_pr__res_xhigh_po_0p69.ra = 7.878351e-03
xr7.xsky130_fd_pr__res_xhigh_po_0p69.ra = 1.458581e+00
xr8.xsky130_fd_pr__res_xhigh_po_0p69.ra = 1.104976e+00
xr9.xsky130_fd_pr__res_xhigh_po_0p69.ra = 1.236447e-02
Doing analysis at TEMP = 0.000000 and TNOM = 27.000000


No. of Data Rows : 91
Error: no such vector PM
Note: Starting true gmin stepping
Trying gmin =   1.0000E-03 Note: One successful gmin step
Trying gmin =   1.0000E-04 Note: One successful gmin step
Trying gmin =   1.0000E-05 Note: One successful gmin step
Trying gmin =   1.0000E-06 Warning: Further gmin increment
Trying gmin =   5.6234E-06 Note: One successful gmin step
Trying gmin =   2.3714E-06 Note: One successful gmin step
Trying gmin =   6.4938E-07 Warning: Further gmin increment
Trying gmin =   1.7154E-06 Warning: Further gmin increment
Trying gmin =   2.1870E-06 Note: One successful gmin step
Trying gmin =   1.9369E-06 Warning: Further gmin increment
Trying gmin =   2.1216E-06 Note: One successful gmin step
Trying gmin =   2.0271E-06 Note: One successful gmin step
Trying gmin =   1.8933E-06 Note: One successful gmin step
Trying gmin =   1.7089E-06 Note: One successful gmin step
Trying gmin =   1.4655E-06 Note: One successful gmin step
Trying gmin =   1.1638E-06 Note: One successful gmin step
Trying gmin =   8.2357E-07 Note: One successful gmin step
Trying gmin =   4.9029E-07 Note: One successful gmin step
Trying gmin =   2.2520E-07 Note: One successful gmin step
Trying gmin =   1.0344E-07 Note: One successful gmin step
Trying gmin =   3.2201E-08 Note: One successful gmin step
Trying gmin =   5.5928E-09 Note: One successful gmin step
Trying gmin =   5.5928E-10 Note: One successful gmin step
Trying gmin =   5.5928E-11 Note: One successful gmin step
Trying gmin =   5.5928E-12 Note: One successful gmin step
Trying gmin =   1.0000E-12 Note: One successful gmin step
Note: True gmin stepping completed
 Reference value :  1.00000e+00Note: Starting true gmin stepping
Trying gmin =   1.0000E-03 Note: One successful gmin step
Trying gmin =   1.0000E-04 Note: One successful gmin step
Trying gmin =   1.0000E-05 Note: One successful gmin step
Trying gmin =   1.0000E-06 Note: One successful gmin step
Trying gmin =   1.0000E-07 Note: One successful gmin step
Trying gmin =   1.0000E-08 Warning: Further gmin increment
Trying gmin =   5.6234E-08 Warning: Further gmin increment
Trying gmin =   8.6596E-08 Note: One successful gmin step
Trying gmin =   6.9783E-08 Note: One successful gmin step
Trying gmin =   5.0481E-08 Warning: Further gmin increment
Trying gmin =   6.4357E-08 Note: One successful gmin step
Trying gmin =   5.6998E-08 Warning: Further gmin increment
Trying gmin =   6.2432E-08 Warning: Further gmin increment
Trying gmin =   6.3870E-08 Note: One successful gmin step
Trying gmin =   6.3147E-08 Warning: Further gmin increment
Trying gmin =   6.3689E-08 Warning: Further gmin increment
Trying gmin =   6.3825E-08 Note: One successful gmin step
Trying gmin =   6.3757E-08 Warning: Further gmin increment
Trying gmin =   6.3808E-08 Note: One successful gmin step
Trying gmin =   6.3782E-08 Warning: Further gmin increment
Trying gmin =   6.3801E-08 Note: One successful gmin step
Trying gmin =   6.3792E-08 Note: One successful gmin step
Trying gmin =   6.3777E-08 Warning: Further gmin increment
Trying gmin =   6.3788E-08 Warning: Further gmin increment
Trying gmin =   6.3791E-08 Warning: Last gmin step failed
Warning: True gmin stepping failed
Note: Starting dynamic gmin stepping
Trying gmin =   1.0000E-03 Note: One successful gmin step
Trying gmin =   1.0000E-04 Note: One successful gmin step
Trying gmin =   1.0000E-05 Note: One successful gmin step
Trying gmin =   1.0000E-06 Warning: Further gmin increment
Trying gmin =   5.6234E-06 Note: One successful gmin step
Trying gmin =   3.1623E-06 Note: One successful gmin step
Trying gmin =   1.3335E-06 Note: One successful gmin step
Trying gmin =   3.6517E-07 Note: One successful gmin step
Trying gmin =   1.0000E-07 Note: One successful gmin step
Trying gmin =   1.4330E-08 Note: One successful gmin step
Trying gmin =   1.4330E-09 Note: One successful gmin step
Trying gmin =   1.4330E-10 Note: One successful gmin step
Trying gmin =   1.4330E-11 Note: One successful gmin step
Trying gmin =   1.4330E-12 Note: One successful gmin step
Trying gmin =   1.0000E-12 Note: One successful gmin step
Note: Dynamic gmin stepping completed
 Reference value :  2.80000e+00Note: Starting true gmin stepping
Trying gmin =   1.0000E-03 Note: One successful gmin step
Trying gmin =   1.0000E-04 Note: One successful gmin step
Trying gmin =   1.0000E-05 Note: One successful gmin step
Trying gmin =   1.0000E-06 Note: One successful gmin step
Trying gmin =   1.0000E-07 Note: One successful gmin step
Trying gmin =   1.0000E-08 Note: One successful gmin step
Trying gmin =   3.1623E-09 Warning: Further gmin increment
Trying gmin =   7.4989E-09 Note: One successful gmin step
Trying gmin =   4.8697E-09 Note: One successful gmin step
Trying gmin =   2.5483E-09 Warning: Further gmin increment
Trying gmin =   4.1418E-09 Note: One successful gmin step
Trying gmin =   3.2488E-09 Note: One successful gmin step
Trying gmin =   2.2569E-09 Note: One successful gmin step
Trying gmin =   1.3068E-09 Warning: Further gmin increment
Trying gmin =   1.9687E-09 Note: One successful gmin step
Trying gmin =   1.6040E-09 Note: One successful gmin step
Trying gmin =   1.1795E-09 Note: One successful gmin step
Trying gmin =   8.6743E-10 Note: One successful gmin step
Trying gmin =   5.4702E-10 Note: One successful gmin step
Trying gmin =   2.7395E-10 Note: One successful gmin step
Trying gmin =   9.7087E-11 Note: One successful gmin step
Trying gmin =   2.0483E-11 Note: One successful gmin step
Trying gmin =   2.0483E-12 Note: One successful gmin step
Trying gmin =   1.0000E-12 Note: One successful gmin step
Note: True gmin stepping completed
 Reference value :  1.26000e+00Note: Starting true gmin stepping
Trying gmin =   1.0000E-03 Note: One successful gmin step
Trying gmin =   1.0000E-04 Note: One successful gmin step
Trying gmin =   1.0000E-05 Note: One successful gmin step
Trying gmin =   1.0000E-06 Note: One successful gmin step
Trying gmin =   1.0000E-07 Note: One successful gmin step
Trying gmin =   1.0000E-08 Warning: Further gmin increment
Trying gmin =   5.6234E-08 Note: One successful gmin step
Trying gmin =   2.3714E-08 Note: One successful gmin step
Trying gmin =   6.4938E-09 Note: One successful gmin step
Trying gmin =   9.3057E-10 Warning: Further gmin increment
Trying gmin =   3.9954E-09 Note: One successful gmin step
Trying gmin =   1.9282E-09 Warning: Further gmin increment
Trying gmin =   3.3301E-09 Note: One successful gmin step
Trying gmin =   2.5340E-09 Note: One successful gmin step
Trying gmin =   2.2105E-09 Note: One successful gmin step
Trying gmin =   1.8009E-09 Note: One successful gmin step
Trying gmin =   1.3244E-09 Note: One successful gmin step
Trying gmin =   8.3519E-10 Note: One successful gmin step
Trying gmin =   4.1826E-10 Note: One successful gmin step
Trying gmin =   1.4823E-10 Note: One successful gmin step
Trying gmin =   3.1273E-11 Note: One successful gmin step
Trying gmin =   3.1273E-12 Note: One successful gmin step
Trying gmin =   1.0000E-12 Note: One successful gmin step
Note: True gmin stepping completed
 Reference value :  9.20000e-01
Error: measure  pm  (AT) : out of interval
 meas ac pm find p when vdb(ldo_out)=0 failed!

Doing analysis at TEMP = 0.000000 and TNOM = 27.000000


No. of Data Rows : 91
psrr100             =  -5.982417e+01
psrr100k            =  -2.644361e+01
Doing analysis at TEMP = 0.000000 and TNOM = 27.000000


No. of Data Rows : 86
temp_coeff = 4.388379e+01
Doing analysis at TEMP = 0.000000 and TNOM = 27.000000


No. of Data Rows : 141
vldo_sup_2          =  2.137931e+00
vldo_sup_2_8        =  2.890505e+00
line_reg = 9.407175e-01
Note: No ".plot", ".print", or ".fourier" lines; no simulations run
vin                 =  1.564929e+00
dropout = -1.99071e-01
