 Reference value :  0.00000e+00
No compatibility mode selected!


Circuit: * ldo netlist 

Doing analysis at TEMP = 85.000000 and TNOM = 27.000000


No. of Data Rows : 1
bg_out = 1.199982e+00
inn = 1.146459e+00
inp = 1.146412e+00
l1#branch = 0.000000e+00
ldo_out = 1.805560e+00
m.xm1.msky130_fd_pr__nfet_g5v0d10v5#body = 2.523829e-11
m.xm1.msky130_fd_pr__nfet_g5v0d10v5#dbody = 4.437431e-11
m.xm1.msky130_fd_pr__nfet_g5v0d10v5#sbody = 3.134055e-11
m.xm2.msky130_fd_pr__pfet_g5v0d10v5#body = 2.100000e+00
m.xm2.msky130_fd_pr__pfet_g5v0d10v5#dbody = 2.100000e+00
m.xm2.msky130_fd_pr__pfet_g5v0d10v5#sbody = 2.100000e+00
m.xm3.msky130_fd_pr__pfet_g5v0d10v5#body = 2.100000e+00
m.xm3.msky130_fd_pr__pfet_g5v0d10v5#dbody = 2.100000e+00
m.xm3.msky130_fd_pr__pfet_g5v0d10v5#sbody = 2.100000e+00
m.xm4.msky130_fd_pr__pfet_g5v0d10v5#body = 2.100000e+00
m.xm4.msky130_fd_pr__pfet_g5v0d10v5#dbody = 2.100000e+00
m.xm4.msky130_fd_pr__pfet_g5v0d10v5#sbody = 2.100000e+00
m.xm5.msky130_fd_pr__pfet_g5v0d10v5#body = 2.100000e+00
m.xm5.msky130_fd_pr__pfet_g5v0d10v5#dbody = 2.100000e+00
m.xm5.msky130_fd_pr__pfet_g5v0d10v5#sbody = 2.100000e+00
m.xm6.msky130_fd_pr__nfet_g5v0d10v5#body = 1.910288e-11
m.xm6.msky130_fd_pr__nfet_g5v0d10v5#dbody = 4.775708e-11
m.xm6.msky130_fd_pr__nfet_g5v0d10v5#sbody = 9.551552e-12
m.xm7.msky130_fd_pr__pfet_g5v0d10v5#body = 2.100000e+00
m.xm7.msky130_fd_pr__pfet_g5v0d10v5#dbody = 2.100000e+00
m.xm7.msky130_fd_pr__pfet_g5v0d10v5#sbody = 2.100000e+00
m.xm8.msky130_fd_pr__pfet_g5v0d10v5#body = 2.100000e+00
m.xm8.msky130_fd_pr__pfet_g5v0d10v5#dbody = 2.100000e+00
m.xm8.msky130_fd_pr__pfet_g5v0d10v5#sbody = 2.100000e+00
m.xm9.msky130_fd_pr__nfet_g5v0d10v5#body = 2.350447e-11
m.xm9.msky130_fd_pr__nfet_g5v0d10v5#dbody = 4.270666e-11
m.xm9.msky130_fd_pr__nfet_g5v0d10v5#sbody = 2.780675e-11
m.xm10.msky130_fd_pr__nfet_g5v0d10v5#body = 2.329564e-11
m.xm10.msky130_fd_pr__nfet_g5v0d10v5#dbody = 4.218457e-11
m.xm10.msky130_fd_pr__nfet_g5v0d10v5#sbody = 2.770234e-11
m.xm11.msky130_fd_pr__pfet_g5v0d10v5#body = 2.100000e+00
m.xm11.msky130_fd_pr__pfet_g5v0d10v5#dbody = 2.100000e+00
m.xm11.msky130_fd_pr__pfet_g5v0d10v5#sbody = 2.100000e+00
m.xm12.msky130_fd_pr__pfet_g5v0d10v5#body = 2.100000e+00
m.xm12.msky130_fd_pr__pfet_g5v0d10v5#dbody = 2.100000e+00
m.xm12.msky130_fd_pr__pfet_g5v0d10v5#sbody = 2.100000e+00
m.xm13.msky130_fd_pr__nfet_g5v0d10v5#body = 6.379551e-12
m.xm13.msky130_fd_pr__nfet_g5v0d10v5#dbody = 1.594881e-11
m.xm13.msky130_fd_pr__nfet_g5v0d10v5#sbody = 3.189844e-12
m.xm14.msky130_fd_pr__pfet_g5v0d10v5#body = 2.100000e+00
m.xm14.msky130_fd_pr__pfet_g5v0d10v5#dbody = 2.100000e+00
m.xm14.msky130_fd_pr__pfet_g5v0d10v5#sbody = 2.100000e+00
m.xm15.msky130_fd_pr__nfet_g5v0d10v5#body = 4.638277e-16
m.xm15.msky130_fd_pr__nfet_g5v0d10v5#dbody = 1.159530e-15
m.xm15.msky130_fd_pr__nfet_g5v0d10v5#sbody = 2.319533e-16
m.xm16.msky130_fd_pr__nfet_g5v0d10v5#body = 5.106111e-11
m.xm16.msky130_fd_pr__nfet_g5v0d10v5#dbody = 8.851093e-11
m.xm16.msky130_fd_pr__nfet_g5v0d10v5#sbody = 6.467240e-11
m.xm17.msky130_fd_pr__pfet_g5v0d10v5#body = 2.100000e+00
m.xm17.msky130_fd_pr__pfet_g5v0d10v5#dbody = 2.100000e+00
m.xm17.msky130_fd_pr__pfet_g5v0d10v5#sbody = 2.100000e+00
m.xm18.msky130_fd_pr__nfet_g5v0d10v5#body = 1.841347e-11
m.xm18.msky130_fd_pr__nfet_g5v0d10v5#dbody = 4.603345e-11
m.xm18.msky130_fd_pr__nfet_g5v0d10v5#sbody = 9.206811e-12
m.xm19.msky130_fd_pr__nfet_g5v0d10v5#body = 2.528583e-11
m.xm19.msky130_fd_pr__nfet_g5v0d10v5#dbody = 4.449317e-11
m.xm19.msky130_fd_pr__nfet_g5v0d10v5#sbody = 3.136433e-11
m.xm20.msky130_fd_pr__nfet_g5v0d10v5#body = 1.237785e-11
m.xm20.msky130_fd_pr__nfet_g5v0d10v5#dbody = 3.094455e-11
m.xm20.msky130_fd_pr__nfet_g5v0d10v5#sbody = 6.189000e-12
m.xm22.msky130_fd_pr__nfet_g5v0d10v5#body = 1.265614e-11
m.xm22.msky130_fd_pr__nfet_g5v0d10v5#dbody = 3.164024e-11
m.xm22.msky130_fd_pr__nfet_g5v0d10v5#sbody = 6.328180e-12
m.xm24.msky130_fd_pr__pfet_g5v0d10v5#body = 2.100000e+00
m.xm24.msky130_fd_pr__pfet_g5v0d10v5#dbody = 2.100000e+00
m.xm24.msky130_fd_pr__pfet_g5v0d10v5#sbody = 2.100000e+00
m.xm26.msky130_fd_pr__pfet_g5v0d10v5#body = 2.100000e+00
m.xm26.msky130_fd_pr__pfet_g5v0d10v5#dbody = 2.100000e+00
m.xm26.msky130_fd_pr__pfet_g5v0d10v5#sbody = 2.100000e+00
mir = 8.509917e-01
net1 = 6.298192e-01
net2 = 8.971056e-07
net3 = 7.033738e-01
net4 = 3.296621e-01
net5 = 8.547954e-01
net6 = 8.453673e-01
net7 = 7.033256e-01
net8 = 9.340772e-01
net9 = 9.507841e-01
net10 = 3.547943e-01
net11 = 1.317498e+00
net12 = 1.317498e+00
net13 = 0.000000e+00
out = 1.317498e+00
pos = 1.200224e+00
q.xq2.qsky130_fd_pr__pnp_05v5_w0p68l0p68#collcx = 2.964395e-03
q.xq3.qsky130_fd_pr__pnp_05v5_w0p68l0p68#collcx = 3.741447e-04
q.xq4.qsky130_fd_pr__pnp_05v5_w0p68l0p68#collcx = 3.741447e-04
q.xq8.qsky130_fd_pr__pnp_05v5_w0p68l0p68#collcx = 3.741447e-04
q.xq10.qsky130_fd_pr__pnp_05v5_w0p68l0p68#collcx = 3.741447e-04
q.xq12.qsky130_fd_pr__pnp_05v5_w0p68l0p68#collcx = 3.741447e-04
q.xq14.qsky130_fd_pr__pnp_05v5_w0p68l0p68#collcx = 3.741447e-04
q.xq16.qsky130_fd_pr__pnp_05v5_w0p68l0p68#collcx = 3.741447e-04
q.xq18.qsky130_fd_pr__pnp_05v5_w0p68l0p68#collcx = 3.741447e-04
vb = 8.346545e-01
vdd = 2.100000e+00
vs#branch = -1.88833e-04
vt#branch = 0.000000e+00
xc1.a = 0.000000e+00
xc1.b1 = 0.000000e+00
xc3.a = 1.317498e+00
xc3.b1 = 1.317498e+00
xr1.xsky130_fd_pr__res_xhigh_po_0p69.ra = 7.091412e-01
xr2.xsky130_fd_pr__res_xhigh_po_0p69.ra = 7.091893e-01
xr3.xsky130_fd_pr__res_xhigh_po_0p69.ra = 3.468039e-03
xr4.xsky130_fd_pr__res_xhigh_po_0p69.ra = 6.321991e-01
xr5.xsky130_fd_pr__res_xhigh_po_0p69.ra = 3.467788e-03
xr6.xsky130_fd_pr__res_xhigh_po_0p69.ra = 6.158591e-03
xr7.xsky130_fd_pr__res_xhigh_po_0p69.ra = 1.317498e+00
xr8.xsky130_fd_pr__res_xhigh_po_0p69.ra = 1.210462e+00
xr9.xsky130_fd_pr__res_xhigh_po_0p69.ra = 1.073858e-02
Doing analysis at TEMP = 85.000000 and TNOM = 27.000000


No. of Data Rows : 91
Note: Starting true gmin stepping
Trying gmin =   1.0000E-03 Note: One successful gmin step
Trying gmin =   1.0000E-04 Note: One successful gmin step
Trying gmin =   1.0000E-05 Note: One successful gmin step
Trying gmin =   1.0000E-06 Note: One successful gmin step
Trying gmin =   1.0000E-07 Note: One successful gmin step
Trying gmin =   1.0000E-08 Warning: Further gmin increment
Trying gmin =   5.6234E-08 Warning: Further gmin increment
Trying gmin =   8.6596E-08 Note: One successful gmin step
Trying gmin =   6.9783E-08 Note: One successful gmin step
Trying gmin =   5.6234E-08 Note: One successful gmin step
Trying gmin =   4.0679E-08 Note: One successful gmin step
Trying gmin =   2.5029E-08 Note: One successful gmin step
Trying gmin =   1.2079E-08 Note: One successful gmin step
Trying gmin =   4.0497E-09 Note: One successful gmin step
Trying gmin =   7.8615E-10 Note: One successful gmin step
Trying gmin =   7.8615E-11 Note: One successful gmin step
Trying gmin =   7.8615E-12 Note: One successful gmin step
Trying gmin =   1.0000E-12 Note: One successful gmin step
Note: True gmin stepping completed
 Reference value :  1.46000e+00Note: Starting true gmin stepping
Trying gmin =   1.0000E-03 Note: One successful gmin step
Trying gmin =   1.0000E-04 Note: One successful gmin step
Trying gmin =   1.0000E-05 Note: One successful gmin step
Trying gmin =   1.0000E-06 Note: One successful gmin step
Trying gmin =   1.0000E-07 Note: One successful gmin step
Trying gmin =   1.0000E-08 Warning: Further gmin increment
Trying gmin =   5.6234E-08 Warning: Further gmin increment
Trying gmin =   8.6596E-08 Note: One successful gmin step
Trying gmin =   6.9783E-08 Note: One successful gmin step
Trying gmin =   5.6234E-08 Note: One successful gmin step
Trying gmin =   4.0679E-08 Note: One successful gmin step
Trying gmin =   2.5029E-08 Note: One successful gmin step
Trying gmin =   1.2079E-08 Note: One successful gmin step
Trying gmin =   4.0497E-09 Note: One successful gmin step
Trying gmin =   7.8615E-10 Note: One successful gmin step
Trying gmin =   7.8615E-11 Note: One successful gmin step
Trying gmin =   7.8615E-12 Note: One successful gmin step
Trying gmin =   1.0000E-12 Note: One successful gmin step
Note: True gmin stepping completed
Note: Starting true gmin stepping
Trying gmin =   1.0000E-03 Note: One successful gmin step
Trying gmin =   1.0000E-04 Note: One successful gmin step
Trying gmin =   1.0000E-05 Note: One successful gmin step
Trying gmin =   1.0000E-06 Note: One successful gmin step
Trying gmin =   1.0000E-07 Note: One successful gmin step
Trying gmin =   1.0000E-08 Warning: Further gmin increment
Trying gmin =   5.6234E-08 Note: One successful gmin step
Trying gmin =   3.1623E-08 Note: One successful gmin step
Trying gmin =   1.3335E-08 Warning: Further gmin increment
Trying gmin =   2.5483E-08 Note: One successful gmin step
Trying gmin =   1.8434E-08 Note: One successful gmin step
Trying gmin =   1.1342E-08 Note: One successful gmin step
Trying gmin =   5.4737E-09 Note: One successful gmin step
Trying gmin =   1.8352E-09 Note: One successful gmin step
Trying gmin =   3.5625E-10 Note: One successful gmin step
Trying gmin =   3.5625E-11 Note: One successful gmin step
Trying gmin =   3.5625E-12 Note: One successful gmin step
Trying gmin =   1.0000E-12 Note: One successful gmin step
Note: True gmin stepping completed
 Reference value :  1.24000e+00pm                  =  5.593861e+01
Doing analysis at TEMP = 85.000000 and TNOM = 27.000000


No. of Data Rows : 91
psrr100             =  -4.645490e+01
psrr100k            =  -2.573729e+01
Doing analysis at TEMP = 85.000000 and TNOM = 27.000000


No. of Data Rows : 86
temp_coeff = 1.269854e+02
Doing analysis at TEMP = 85.000000 and TNOM = 27.000000


No. of Data Rows : 141
vldo_sup_2          =  1.804993e+00
vldo_sup_2_8        =  1.807280e+00
line_reg = 2.858750e-03
Note: No ".plot", ".print", or ".fourier" lines; no simulations run
vin                 =  1.764180e+00
dropout = 1.800000e-04
