 Reference value :  0.00000e+00
No compatibility mode selected!


Circuit: * ldo netlist 

Doing analysis at TEMP = 85.000000 and TNOM = 27.000000


No. of Data Rows : 1
bg_out = 1.191298e+00
inn = 1.134026e+00
inp = 1.134012e+00
l1#branch = 0.000000e+00
ldo_out = 1.791995e+00
m.xm1.msky130_fd_pr__nfet_g5v0d10v5#body = 2.969930e-11
m.xm1.msky130_fd_pr__nfet_g5v0d10v5#dbody = 5.599703e-11
m.xm1.msky130_fd_pr__nfet_g5v0d10v5#sbody = 3.310088e-11
m.xm2.msky130_fd_pr__pfet_g5v0d10v5#body = 2.300000e+00
m.xm2.msky130_fd_pr__pfet_g5v0d10v5#dbody = 2.300000e+00
m.xm2.msky130_fd_pr__pfet_g5v0d10v5#sbody = 2.300000e+00
m.xm3.msky130_fd_pr__pfet_g5v0d10v5#body = 2.300000e+00
m.xm3.msky130_fd_pr__pfet_g5v0d10v5#dbody = 2.300000e+00
m.xm3.msky130_fd_pr__pfet_g5v0d10v5#sbody = 2.300000e+00
m.xm4.msky130_fd_pr__pfet_g5v0d10v5#body = 2.300000e+00
m.xm4.msky130_fd_pr__pfet_g5v0d10v5#dbody = 2.300000e+00
m.xm4.msky130_fd_pr__pfet_g5v0d10v5#sbody = 2.300000e+00
m.xm5.msky130_fd_pr__pfet_g5v0d10v5#body = 2.300000e+00
m.xm5.msky130_fd_pr__pfet_g5v0d10v5#dbody = 2.300000e+00
m.xm5.msky130_fd_pr__pfet_g5v0d10v5#sbody = 2.300000e+00
m.xm6.msky130_fd_pr__nfet_g5v0d10v5#body = 1.922898e-11
m.xm6.msky130_fd_pr__nfet_g5v0d10v5#dbody = 4.807233e-11
m.xm6.msky130_fd_pr__nfet_g5v0d10v5#sbody = 9.614595e-12
m.xm7.msky130_fd_pr__pfet_g5v0d10v5#body = 2.300000e+00
m.xm7.msky130_fd_pr__pfet_g5v0d10v5#dbody = 2.300000e+00
m.xm7.msky130_fd_pr__pfet_g5v0d10v5#sbody = 2.300000e+00
m.xm8.msky130_fd_pr__pfet_g5v0d10v5#body = 2.300000e+00
m.xm8.msky130_fd_pr__pfet_g5v0d10v5#dbody = 2.300000e+00
m.xm8.msky130_fd_pr__pfet_g5v0d10v5#sbody = 2.300000e+00
m.xm9.msky130_fd_pr__nfet_g5v0d10v5#body = 2.788528e-11
m.xm9.msky130_fd_pr__nfet_g5v0d10v5#dbody = 5.407432e-11
m.xm9.msky130_fd_pr__nfet_g5v0d10v5#sbody = 2.958151e-11
m.xm10.msky130_fd_pr__nfet_g5v0d10v5#body = 2.765559e-11
m.xm10.msky130_fd_pr__nfet_g5v0d10v5#dbody = 5.350010e-11
m.xm10.msky130_fd_pr__nfet_g5v0d10v5#sbody = 2.946666e-11
m.xm11.msky130_fd_pr__pfet_g5v0d10v5#body = 2.300000e+00
m.xm11.msky130_fd_pr__pfet_g5v0d10v5#dbody = 2.300000e+00
m.xm11.msky130_fd_pr__pfet_g5v0d10v5#sbody = 2.300000e+00
m.xm12.msky130_fd_pr__pfet_g5v0d10v5#body = 2.300000e+00
m.xm12.msky130_fd_pr__pfet_g5v0d10v5#dbody = 2.300000e+00
m.xm12.msky130_fd_pr__pfet_g5v0d10v5#sbody = 2.300000e+00
m.xm13.msky130_fd_pr__nfet_g5v0d10v5#body = 6.171752e-12
m.xm13.msky130_fd_pr__nfet_g5v0d10v5#dbody = 1.542931e-11
m.xm13.msky130_fd_pr__nfet_g5v0d10v5#sbody = 3.085941e-12
m.xm14.msky130_fd_pr__pfet_g5v0d10v5#body = 2.300000e+00
m.xm14.msky130_fd_pr__pfet_g5v0d10v5#dbody = 2.300000e+00
m.xm14.msky130_fd_pr__pfet_g5v0d10v5#sbody = 2.300000e+00
m.xm15.msky130_fd_pr__nfet_g5v0d10v5#body = 1.716934e-14
m.xm15.msky130_fd_pr__nfet_g5v0d10v5#dbody = 4.292201e-14
m.xm15.msky130_fd_pr__nfet_g5v0d10v5#sbody = 8.586016e-15
m.xm16.msky130_fd_pr__nfet_g5v0d10v5#body = 5.342793e-11
m.xm16.msky130_fd_pr__nfet_g5v0d10v5#dbody = 9.471657e-11
m.xm16.msky130_fd_pr__nfet_g5v0d10v5#sbody = 6.556722e-11
m.xm17.msky130_fd_pr__pfet_g5v0d10v5#body = 2.300000e+00
m.xm17.msky130_fd_pr__pfet_g5v0d10v5#dbody = 2.300000e+00
m.xm17.msky130_fd_pr__pfet_g5v0d10v5#sbody = 2.300000e+00
m.xm18.msky130_fd_pr__nfet_g5v0d10v5#body = 2.380447e-11
m.xm18.msky130_fd_pr__nfet_g5v0d10v5#dbody = 5.880372e-11
m.xm18.msky130_fd_pr__nfet_g5v0d10v5#sbody = 1.190231e-11
m.xm19.msky130_fd_pr__nfet_g5v0d10v5#body = 2.971967e-11
m.xm19.msky130_fd_pr__nfet_g5v0d10v5#dbody = 5.604795e-11
m.xm19.msky130_fd_pr__nfet_g5v0d10v5#sbody = 3.311106e-11
m.xm20.msky130_fd_pr__nfet_g5v0d10v5#body = 1.263675e-11
m.xm20.msky130_fd_pr__nfet_g5v0d10v5#dbody = 3.159179e-11
m.xm20.msky130_fd_pr__nfet_g5v0d10v5#sbody = 6.318444e-12
m.xm22.msky130_fd_pr__nfet_g5v0d10v5#body = 1.242092e-11
m.xm22.msky130_fd_pr__nfet_g5v0d10v5#dbody = 3.105219e-11
m.xm22.msky130_fd_pr__nfet_g5v0d10v5#sbody = 6.210562e-12
m.xm24.msky130_fd_pr__pfet_g5v0d10v5#body = 2.300000e+00
m.xm24.msky130_fd_pr__pfet_g5v0d10v5#dbody = 2.300000e+00
m.xm24.msky130_fd_pr__pfet_g5v0d10v5#sbody = 2.300000e+00
m.xm26.msky130_fd_pr__pfet_g5v0d10v5#body = 2.300000e+00
m.xm26.msky130_fd_pr__pfet_g5v0d10v5#dbody = 2.300000e+00
m.xm26.msky130_fd_pr__pfet_g5v0d10v5#sbody = 2.300000e+00
mir = 1.225791e+00
net1 = 6.211318e-01
net2 = 3.320211e-05
net3 = 6.945835e-01
net4 = 3.099823e-01
net5 = 1.227420e+00
net6 = 8.545660e-01
net7 = 6.945688e-01
net8 = 1.298610e+00
net9 = 1.316985e+00
net10 = 3.372837e-01
net11 = 1.719599e+00
net12 = 1.719599e+00
net13 = 0.000000e+00
out = 1.719599e+00
pos = 1.191510e+00
q.xq2.qsky130_fd_pr__pnp_05v5_w0p68l0p68#collcx = 2.897302e-03
q.xq3.qsky130_fd_pr__pnp_05v5_w0p68l0p68#collcx = 3.644168e-04
q.xq4.qsky130_fd_pr__pnp_05v5_w0p68l0p68#collcx = 3.644168e-04
q.xq8.qsky130_fd_pr__pnp_05v5_w0p68l0p68#collcx = 3.644168e-04
q.xq10.qsky130_fd_pr__pnp_05v5_w0p68l0p68#collcx = 3.644168e-04
q.xq12.qsky130_fd_pr__pnp_05v5_w0p68l0p68#collcx = 3.644168e-04
q.xq14.qsky130_fd_pr__pnp_05v5_w0p68l0p68#collcx = 3.644168e-04
q.xq16.qsky130_fd_pr__pnp_05v5_w0p68l0p68#collcx = 3.644168e-04
q.xq18.qsky130_fd_pr__pnp_05v5_w0p68l0p68#collcx = 3.644168e-04
vb = 8.544767e-01
vdd = 2.300000e+00
vs#branch = -1.82485e-04
vt#branch = 0.000000e+00
xc1.a = 0.000000e+00
xc1.b1 = 0.000000e+00
xc3.a = 1.719599e+00
xc3.b1 = 1.719599e+00
xr1.xsky130_fd_pr__res_xhigh_po_0p69.ra = 7.027586e-01
xr2.xsky130_fd_pr__res_xhigh_po_0p69.ra = 7.027733e-01
xr3.xsky130_fd_pr__res_xhigh_po_0p69.ra = 4.856036e-03
xr4.xsky130_fd_pr__res_xhigh_po_0p69.ra = 6.245087e-01
xr5.xsky130_fd_pr__res_xhigh_po_0p69.ra = 4.855927e-03
xr6.xsky130_fd_pr__res_xhigh_po_0p69.ra = 8.669298e-03
xr7.xsky130_fd_pr__res_xhigh_po_0p69.ra = 1.719599e+00
xr8.xsky130_fd_pr__res_xhigh_po_0p69.ra = 1.205930e+00
xr9.xsky130_fd_pr__res_xhigh_po_0p69.ra = 1.512158e-02
Doing analysis at TEMP = 85.000000 and TNOM = 27.000000


No. of Data Rows : 91
Note: Starting true gmin stepping
Trying gmin =   1.0000E-03 Note: One successful gmin step
Trying gmin =   1.0000E-04 Note: One successful gmin step
Trying gmin =   1.0000E-05 Note: One successful gmin step
Trying gmin =   1.0000E-06 Note: One successful gmin step
Trying gmin =   1.0000E-07 Note: One successful gmin step
Trying gmin =   1.0000E-08 Warning: Further gmin increment
Trying gmin =   5.6234E-08 Note: One successful gmin step
Trying gmin =   2.3714E-08 Warning: Further gmin increment
Trying gmin =   4.5316E-08 Warning: Further gmin increment
Trying gmin =   5.3280E-08 Note: One successful gmin step
Trying gmin =   4.9137E-08 Warning: Further gmin increment
Trying gmin =   5.2212E-08 Note: One successful gmin step
Trying gmin =   5.0651E-08 Warning: Further gmin increment
Trying gmin =   5.1818E-08 Warning: Further gmin increment
Trying gmin =   5.2113E-08 Note: One successful gmin step
Trying gmin =   5.1965E-08 Warning: Further gmin increment
Trying gmin =   5.2076E-08 Note: One successful gmin step
Trying gmin =   5.2021E-08 Note: One successful gmin step
Trying gmin =   5.1938E-08 Warning: Further gmin increment
Trying gmin =   5.2000E-08 Note: One successful gmin step
Trying gmin =   5.1969E-08 Warning: Further gmin increment
Trying gmin =   5.1992E-08 Warning: Further gmin increment
Trying gmin =   5.1998E-08 Note: One successful gmin step
Trying gmin =   5.1995E-08 Note: One successful gmin step
Trying gmin =   5.1991E-08 Warning: Further gmin increment
Trying gmin =   5.1994E-08 Note: One successful gmin step
Trying gmin =   5.1992E-08 Warning: Last gmin step failed
Warning: True gmin stepping failed
Note: Starting dynamic gmin stepping
Trying gmin =   1.0000E-03 Note: One successful gmin step
Trying gmin =   1.0000E-04 Note: One successful gmin step
Trying gmin =   1.0000E-05 Warning: Further gmin increment
Trying gmin =   5.6234E-05 Note: One successful gmin step
Trying gmin =   2.3714E-05 Note: One successful gmin step
Trying gmin =   6.4938E-06 Warning: Further gmin increment
Trying gmin =   1.7154E-05 Note: One successful gmin step
Trying gmin =   1.0554E-05 Warning: Further gmin increment
Trying gmin =   1.5193E-05 Note: One successful gmin step
Trying gmin =   1.2663E-05 Warning: Further gmin increment
Trying gmin =   1.4517E-05 Note: One successful gmin step
Trying gmin =   1.3558E-05 Note: One successful gmin step
Trying gmin =   1.2238E-05 Note: One successful gmin step
Trying gmin =   1.0495E-05 Note: One successful gmin step
Trying gmin =   8.3340E-06 Note: One successful gmin step
Trying gmin =   5.8977E-06 Note: One successful gmin step
Trying gmin =   3.5110E-06 Note: One successful gmin step
Trying gmin =   2.0901E-06 Warning: Further gmin increment
Trying gmin =   3.0840E-06 Note: One successful gmin step
Trying gmin =   2.5389E-06 Warning: Further gmin increment
Trying gmin =   2.9376E-06 Note: One successful gmin step
Trying gmin =   2.7310E-06 Note: One successful gmin step
Trying gmin =   2.6332E-06 Note: One successful gmin step
Trying gmin =   2.4930E-06 Note: One successful gmin step
Trying gmin =   2.2966E-06 Note: One successful gmin step
Trying gmin =   2.0307E-06 Note: One successful gmin step
Trying gmin =   1.6883E-06 Note: One successful gmin step
Trying gmin =   1.2799E-06 Note: One successful gmin step
Trying gmin =   8.4485E-07 Note: One successful gmin step
Trying gmin =   4.5307E-07 Note: One successful gmin step
Trying gmin =   1.7793E-07 Note: One successful gmin step
Trying gmin =   4.3791E-08 Note: One successful gmin step
Trying gmin =   5.3465E-09 Note: One successful gmin step
Trying gmin =   5.3465E-10 Note: One successful gmin step
Trying gmin =   5.3465E-11 Note: One successful gmin step
Trying gmin =   5.3465E-12 Note: One successful gmin step
Trying gmin =   1.0000E-12 Note: One successful gmin step
Note: Dynamic gmin stepping completed
 Reference value :  2.80000e+00Note: Starting true gmin stepping
Trying gmin =   1.0000E-03 Note: One successful gmin step
Trying gmin =   1.0000E-04 Note: One successful gmin step
Trying gmin =   1.0000E-05 Note: One successful gmin step
Trying gmin =   1.0000E-06 Note: One successful gmin step
Trying gmin =   1.0000E-07 Note: One successful gmin step
Trying gmin =   1.0000E-08 Warning: Further gmin increment
Trying gmin =   5.6234E-08 Note: One successful gmin step
Trying gmin =   2.3714E-08 Note: One successful gmin step
Trying gmin =   6.4938E-09 Warning: Further gmin increment
Trying gmin =   1.7154E-08 Note: One successful gmin step
Trying gmin =   1.0554E-08 Note: One successful gmin step
Trying gmin =   5.0937E-09 Note: One successful gmin step
Trying gmin =   1.7077E-09 Note: One successful gmin step
Trying gmin =   3.3152E-10 Note: One successful gmin step
Trying gmin =   3.3152E-11 Note: One successful gmin step
Trying gmin =   3.3152E-12 Note: One successful gmin step
Trying gmin =   1.0000E-12 Note: One successful gmin step
Note: True gmin stepping completed
Note: Starting true gmin stepping
Trying gmin =   1.0000E-03 Note: One successful gmin step
Trying gmin =   1.0000E-04 Note: One successful gmin step
Trying gmin =   1.0000E-05 Note: One successful gmin step
Trying gmin =   1.0000E-06 Note: One successful gmin step
Trying gmin =   1.0000E-07 Note: One successful gmin step
Trying gmin =   1.0000E-08 Warning: Further gmin increment
Trying gmin =   5.6234E-08 Note: One successful gmin step
Trying gmin =   3.1623E-08 Note: One successful gmin step
Trying gmin =   1.3335E-08 Note: One successful gmin step
Trying gmin =   3.6517E-09 Note: One successful gmin step
Trying gmin =   5.2330E-10 Note: One successful gmin step
Trying gmin =   5.2330E-11 Note: One successful gmin step
Trying gmin =   5.2330E-12 Note: One successful gmin step
Trying gmin =   1.0000E-12 Note: One successful gmin step
Note: True gmin stepping completed
 Reference value :  1.16000e+00pm                  =  6.042535e+01
Doing analysis at TEMP = 85.000000 and TNOM = 27.000000


No. of Data Rows : 91
psrr100             =  -5.166826e+01
psrr100k            =  -2.461316e+01
Doing analysis at TEMP = 85.000000 and TNOM = 27.000000


No. of Data Rows : 86
temp_coeff = 7.562881e+01
Doing analysis at TEMP = 85.000000 and TNOM = 27.000000


No. of Data Rows : 141
vldo_sup_2          =  1.790914e+00
vldo_sup_2_8        =  1.792919e+00
line_reg = 2.506250e-03
Note: No ".plot", ".print", or ".fourier" lines; no simulations run
vin                 =  1.764118e+00
dropout = 1.180000e-04
