 Reference value :  0.00000e+00
No compatibility mode selected!


Circuit: * ldo netlist 

Doing analysis at TEMP = 85.000000 and TNOM = 27.000000


No. of Data Rows : 1
bg_out = 1.101790e+00
inn = 1.068722e+00
inp = 1.068559e+00
l1#branch = 0.000000e+00
ldo_out = 1.811057e+00
m.xm1.msky130_fd_pr__nfet_g5v0d10v5#body = 2.383944e-11
m.xm1.msky130_fd_pr__nfet_g5v0d10v5#dbody = 4.433524e-11
m.xm1.msky130_fd_pr__nfet_g5v0d10v5#sbody = 2.718307e-11
m.xm2.msky130_fd_pr__pfet_g5v0d10v5#body = 2.100000e+00
m.xm2.msky130_fd_pr__pfet_g5v0d10v5#dbody = 2.100000e+00
m.xm2.msky130_fd_pr__pfet_g5v0d10v5#sbody = 2.100000e+00
m.xm3.msky130_fd_pr__pfet_g5v0d10v5#body = 2.100000e+00
m.xm3.msky130_fd_pr__pfet_g5v0d10v5#dbody = 2.100000e+00
m.xm3.msky130_fd_pr__pfet_g5v0d10v5#sbody = 2.100000e+00
m.xm4.msky130_fd_pr__pfet_g5v0d10v5#body = 2.100000e+00
m.xm4.msky130_fd_pr__pfet_g5v0d10v5#dbody = 2.100000e+00
m.xm4.msky130_fd_pr__pfet_g5v0d10v5#sbody = 2.100000e+00
m.xm5.msky130_fd_pr__pfet_g5v0d10v5#body = 2.100000e+00
m.xm5.msky130_fd_pr__pfet_g5v0d10v5#dbody = 2.100000e+00
m.xm5.msky130_fd_pr__pfet_g5v0d10v5#sbody = 2.100000e+00
m.xm6.msky130_fd_pr__nfet_g5v0d10v5#body = 2.034576e-11
m.xm6.msky130_fd_pr__nfet_g5v0d10v5#dbody = 5.086427e-11
m.xm6.msky130_fd_pr__nfet_g5v0d10v5#sbody = 1.017299e-11
m.xm7.msky130_fd_pr__pfet_g5v0d10v5#body = 2.100000e+00
m.xm7.msky130_fd_pr__pfet_g5v0d10v5#dbody = 2.100000e+00
m.xm7.msky130_fd_pr__pfet_g5v0d10v5#sbody = 2.100000e+00
m.xm8.msky130_fd_pr__pfet_g5v0d10v5#body = 2.100000e+00
m.xm8.msky130_fd_pr__pfet_g5v0d10v5#dbody = 2.100000e+00
m.xm8.msky130_fd_pr__pfet_g5v0d10v5#sbody = 2.100000e+00
m.xm9.msky130_fd_pr__nfet_g5v0d10v5#body = 2.205583e-11
m.xm9.msky130_fd_pr__nfet_g5v0d10v5#dbody = 4.301045e-11
m.xm9.msky130_fd_pr__nfet_g5v0d10v5#sbody = 2.315703e-11
m.xm10.msky130_fd_pr__nfet_g5v0d10v5#body = 2.199171e-11
m.xm10.msky130_fd_pr__nfet_g5v0d10v5#dbody = 4.285015e-11
m.xm10.msky130_fd_pr__nfet_g5v0d10v5#sbody = 2.312497e-11
m.xm11.msky130_fd_pr__pfet_g5v0d10v5#body = 2.100000e+00
m.xm11.msky130_fd_pr__pfet_g5v0d10v5#dbody = 2.100000e+00
m.xm11.msky130_fd_pr__pfet_g5v0d10v5#sbody = 2.100000e+00
m.xm12.msky130_fd_pr__pfet_g5v0d10v5#body = 2.100000e+00
m.xm12.msky130_fd_pr__pfet_g5v0d10v5#dbody = 2.100000e+00
m.xm12.msky130_fd_pr__pfet_g5v0d10v5#sbody = 2.100000e+00
m.xm13.msky130_fd_pr__nfet_g5v0d10v5#body = 4.421686e-12
m.xm13.msky130_fd_pr__nfet_g5v0d10v5#dbody = 1.105415e-11
m.xm13.msky130_fd_pr__nfet_g5v0d10v5#sbody = 2.210907e-12
m.xm14.msky130_fd_pr__pfet_g5v0d10v5#body = 2.100000e+00
m.xm14.msky130_fd_pr__pfet_g5v0d10v5#dbody = 2.100000e+00
m.xm14.msky130_fd_pr__pfet_g5v0d10v5#sbody = 2.100000e+00
m.xm15.msky130_fd_pr__nfet_g5v0d10v5#body = 5.474413e-15
m.xm15.msky130_fd_pr__nfet_g5v0d10v5#dbody = 1.368585e-14
m.xm15.msky130_fd_pr__nfet_g5v0d10v5#sbody = 2.737386e-15
m.xm16.msky130_fd_pr__nfet_g5v0d10v5#body = 5.021535e-11
m.xm16.msky130_fd_pr__nfet_g5v0d10v5#dbody = 8.821400e-11
m.xm16.msky130_fd_pr__nfet_g5v0d10v5#sbody = 6.243205e-11
m.xm17.msky130_fd_pr__pfet_g5v0d10v5#body = 2.100000e+00
m.xm17.msky130_fd_pr__pfet_g5v0d10v5#dbody = 2.100000e+00
m.xm17.msky130_fd_pr__pfet_g5v0d10v5#sbody = 2.100000e+00
m.xm18.msky130_fd_pr__nfet_g5v0d10v5#body = 5.739733e-12
m.xm18.msky130_fd_pr__nfet_g5v0d10v5#dbody = 1.434926e-11
m.xm18.msky130_fd_pr__nfet_g5v0d10v5#sbody = 2.869936e-12
m.xm19.msky130_fd_pr__nfet_g5v0d10v5#body = 2.403719e-11
m.xm19.msky130_fd_pr__nfet_g5v0d10v5#dbody = 4.482963e-11
m.xm19.msky130_fd_pr__nfet_g5v0d10v5#sbody = 2.728195e-11
m.xm20.msky130_fd_pr__nfet_g5v0d10v5#body = 1.434899e-11
m.xm20.msky130_fd_pr__nfet_g5v0d10v5#dbody = 3.587240e-11
m.xm20.msky130_fd_pr__nfet_g5v0d10v5#sbody = 7.174573e-12
m.xm22.msky130_fd_pr__nfet_g5v0d10v5#body = 1.091565e-11
m.xm22.msky130_fd_pr__nfet_g5v0d10v5#dbody = 2.728903e-11
m.xm22.msky130_fd_pr__nfet_g5v0d10v5#sbody = 5.457932e-12
m.xm24.msky130_fd_pr__pfet_g5v0d10v5#body = 2.100000e+00
m.xm24.msky130_fd_pr__pfet_g5v0d10v5#dbody = 2.100000e+00
m.xm24.msky130_fd_pr__pfet_g5v0d10v5#sbody = 2.100000e+00
m.xm26.msky130_fd_pr__pfet_g5v0d10v5#body = 2.100000e+00
m.xm26.msky130_fd_pr__pfet_g5v0d10v5#dbody = 2.100000e+00
m.xm26.msky130_fd_pr__pfet_g5v0d10v5#sbody = 2.100000e+00
mir = 8.723680e-01
net1 = 6.368031e-01
net2 = 1.055110e-05
net3 = 7.098594e-01
net4 = 1.877765e-01
net5 = 8.881883e-01
net6 = 9.397592e-01
net7 = 7.096938e-01
net8 = 9.817408e-01
net9 = 9.868705e-01
net10 = 1.935988e-01
net11 = 2.985873e-01
net12 = 2.985873e-01
net13 = 0.000000e+00
out = 2.985873e-01
pos = 1.101854e+00
q.xq2.qsky130_fd_pr__pnp_05v5_w0p68l0p68#collcx = 2.800731e-03
q.xq3.qsky130_fd_pr__pnp_05v5_w0p68l0p68#collcx = 3.563572e-04
q.xq4.qsky130_fd_pr__pnp_05v5_w0p68l0p68#collcx = 3.563572e-04
q.xq8.qsky130_fd_pr__pnp_05v5_w0p68l0p68#collcx = 3.563572e-04
q.xq10.qsky130_fd_pr__pnp_05v5_w0p68l0p68#collcx = 3.563572e-04
q.xq12.qsky130_fd_pr__pnp_05v5_w0p68l0p68#collcx = 3.563572e-04
q.xq14.qsky130_fd_pr__pnp_05v5_w0p68l0p68#collcx = 3.563572e-04
q.xq16.qsky130_fd_pr__pnp_05v5_w0p68l0p68#collcx = 3.563572e-04
q.xq18.qsky130_fd_pr__pnp_05v5_w0p68l0p68#collcx = 3.563572e-04
vb = 9.873073e-01
vdd = 2.100000e+00
vs#branch = -1.00748e-01
vt#branch = 0.000000e+00
xc1.a = 0.000000e+00
xc1.b1 = 0.000000e+00
xc3.a = 2.985873e-01
xc3.b1 = 2.985873e-01
xr1.xsky130_fd_pr__res_xhigh_po_0p69.ra = 7.156581e-01
xr2.xsky130_fd_pr__res_xhigh_po_0p69.ra = 7.158237e-01
xr3.xsky130_fd_pr__res_xhigh_po_0p69.ra = 3.676083e-03
xr4.xsky130_fd_pr__res_xhigh_po_0p69.ra = 6.391631e-01
xr5.xsky130_fd_pr__res_xhigh_po_0p69.ra = 3.675175e-03
xr6.xsky130_fd_pr__res_xhigh_po_0p69.ra = 6.310071e-03
xr7.xsky130_fd_pr__res_xhigh_po_0p69.ra = 2.985873e-01
xr8.xsky130_fd_pr__res_xhigh_po_0p69.ra = 1.111437e+00
xr9.xsky130_fd_pr__res_xhigh_po_0p69.ra = 9.894110e-03
Doing analysis at TEMP = 85.000000 and TNOM = 27.000000


No. of Data Rows : 91
Error: no such vector PM
Note: Starting true gmin stepping
Trying gmin =   1.0000E-03 Note: One successful gmin step
Trying gmin =   1.0000E-04 Note: One successful gmin step
Trying gmin =   1.0000E-05 Note: One successful gmin step
Trying gmin =   1.0000E-06 Note: One successful gmin step
Trying gmin =   1.0000E-07 Note: One successful gmin step
Trying gmin =   1.0000E-08 Note: One successful gmin step
Trying gmin =   1.0000E-09 Warning: Further gmin increment
Trying gmin =   5.6234E-09 Note: One successful gmin step
Trying gmin =   2.3714E-09 Note: One successful gmin step
Trying gmin =   6.4938E-10 Warning: Further gmin increment
Trying gmin =   1.7154E-09 Note: One successful gmin step
Trying gmin =   1.0554E-09 Note: One successful gmin step
Trying gmin =   6.4938E-10 Note: One successful gmin step
Trying gmin =   3.1340E-10 Note: One successful gmin step
Trying gmin =   1.0507E-10 Note: One successful gmin step
Trying gmin =   2.0397E-11 Note: One successful gmin step
Trying gmin =   2.0397E-12 Note: One successful gmin step
Trying gmin =   1.0000E-12 Note: One successful gmin step
Note: True gmin stepping completed
 Reference value :  1.20000e+00
Error: measure  pm  (AT) : out of interval
 meas ac pm find p when vdb(ldo_out)=0 failed!

Doing analysis at TEMP = 85.000000 and TNOM = 27.000000


No. of Data Rows : 91
psrr100             =  -4.172463e+01
psrr100k            =  -1.390990e+01
Doing analysis at TEMP = 85.000000 and TNOM = 27.000000


No. of Data Rows : 86
temp_coeff = 3.516234e+01
Doing analysis at TEMP = 85.000000 and TNOM = 27.000000


No. of Data Rows : 141
vldo_sup_2          =  1.779841e+00
vldo_sup_2_8        =  1.813080e+00
line_reg = 4.154875e-02
Note: No ".plot", ".print", or ".fourier" lines; no simulations run
vin                 =  1.985227e+00
dropout = 2.212270e-01
