Note: Starting true gmin stepping
Trying gmin =   1.0000E-03 Note: One successful gmin step
Trying gmin =   1.0000E-04 Note: One successful gmin step
Trying gmin =   1.0000E-05 Note: One successful gmin step
Trying gmin =   1.0000E-06 Note: One successful gmin step
Trying gmin =   1.0000E-07 Warning: Further gmin increment
Trying gmin =   5.6234E-07 Note: One successful gmin step
Trying gmin =   2.3714E-07 Warning: Further gmin increment
Trying gmin =   4.5316E-07 Note: One successful gmin step
Trying gmin =   4.0679E-07 Note: One successful gmin step
Trying gmin =   3.4599E-07 Note: One successful gmin step
Trying gmin =   2.7139E-07 Note: One successful gmin step
Trying gmin =   1.8853E-07 Note: One successful gmin step
Trying gmin =   1.0917E-07 Note: One successful gmin step
Trying gmin =   6.3209E-08 Note: One successful gmin step
Trying gmin =   3.6600E-08 Note: One successful gmin step
Trying gmin =   2.7850E-08 Note: One successful gmin step
Trying gmin =   1.8486E-08 Note: One successful gmin step
Trying gmin =   9.9972E-09 Note: One successful gmin step
Trying gmin =   3.9758E-09 Note: One successful gmin step
Trying gmin =   9.9712E-10 Note: One successful gmin step
Trying gmin =   1.2524E-10 Note: One successful gmin step
Trying gmin =   1.2524E-11 Note: One successful gmin step
Trying gmin =   1.2524E-12 Note: One successful gmin step
Trying gmin =   1.0000E-12 Note: One successful gmin step
Note: True gmin stepping completed
 Reference value :  0.00000e+00
No compatibility mode selected!


Circuit: * ldo netlist 

Doing analysis at TEMP = 0.000000 and TNOM = 27.000000


No. of Data Rows : 1
bg_out = 1.099423e+00
inn = 1.181040e+00
inp = 1.180963e+00
l1#branch = 0.000000e+00
ldo_out = 1.807761e+00
m.xm1.msky130_fd_pr__nfet_g5v0d10v5#body = 1.391911e-11
m.xm1.msky130_fd_pr__nfet_g5v0d10v5#dbody = 3.020522e-11
m.xm1.msky130_fd_pr__nfet_g5v0d10v5#sbody = 1.155209e-11
m.xm2.msky130_fd_pr__pfet_g5v0d10v5#body = 2.100000e+00
m.xm2.msky130_fd_pr__pfet_g5v0d10v5#dbody = 2.100000e+00
m.xm2.msky130_fd_pr__pfet_g5v0d10v5#sbody = 2.100000e+00
m.xm3.msky130_fd_pr__pfet_g5v0d10v5#body = 2.100000e+00
m.xm3.msky130_fd_pr__pfet_g5v0d10v5#dbody = 2.100000e+00
m.xm3.msky130_fd_pr__pfet_g5v0d10v5#sbody = 2.100000e+00
m.xm4.msky130_fd_pr__pfet_g5v0d10v5#body = 2.100000e+00
m.xm4.msky130_fd_pr__pfet_g5v0d10v5#dbody = 2.100000e+00
m.xm4.msky130_fd_pr__pfet_g5v0d10v5#sbody = 2.100000e+00
m.xm5.msky130_fd_pr__pfet_g5v0d10v5#body = 2.100000e+00
m.xm5.msky130_fd_pr__pfet_g5v0d10v5#dbody = 2.100000e+00
m.xm5.msky130_fd_pr__pfet_g5v0d10v5#sbody = 2.100000e+00
m.xm6.msky130_fd_pr__nfet_g5v0d10v5#body = 1.272653e-11
m.xm6.msky130_fd_pr__nfet_g5v0d10v5#dbody = 3.181632e-11
m.xm6.msky130_fd_pr__nfet_g5v0d10v5#sbody = 6.363271e-12
m.xm7.msky130_fd_pr__pfet_g5v0d10v5#body = 2.100000e+00
m.xm7.msky130_fd_pr__pfet_g5v0d10v5#dbody = 2.100000e+00
m.xm7.msky130_fd_pr__pfet_g5v0d10v5#sbody = 2.100000e+00
m.xm8.msky130_fd_pr__pfet_g5v0d10v5#body = 2.100000e+00
m.xm8.msky130_fd_pr__pfet_g5v0d10v5#dbody = 2.100000e+00
m.xm8.msky130_fd_pr__pfet_g5v0d10v5#sbody = 2.100000e+00
m.xm9.msky130_fd_pr__nfet_g5v0d10v5#body = 1.439575e-11
m.xm9.msky130_fd_pr__nfet_g5v0d10v5#dbody = 3.306568e-11
m.xm9.msky130_fd_pr__nfet_g5v0d10v5#sbody = 1.012158e-11
m.xm10.msky130_fd_pr__nfet_g5v0d10v5#body = 1.398824e-11
m.xm10.msky130_fd_pr__nfet_g5v0d10v5#dbody = 3.204688e-11
m.xm10.msky130_fd_pr__nfet_g5v0d10v5#sbody = 9.917824e-12
m.xm11.msky130_fd_pr__pfet_g5v0d10v5#body = 2.100000e+00
m.xm11.msky130_fd_pr__pfet_g5v0d10v5#dbody = 2.100000e+00
m.xm11.msky130_fd_pr__pfet_g5v0d10v5#sbody = 2.100000e+00
m.xm12.msky130_fd_pr__pfet_g5v0d10v5#body = 2.100000e+00
m.xm12.msky130_fd_pr__pfet_g5v0d10v5#dbody = 2.100000e+00
m.xm12.msky130_fd_pr__pfet_g5v0d10v5#sbody = 2.100000e+00
m.xm13.msky130_fd_pr__nfet_g5v0d10v5#body = 1.461834e-12
m.xm13.msky130_fd_pr__nfet_g5v0d10v5#dbody = 3.654576e-12
m.xm13.msky130_fd_pr__nfet_g5v0d10v5#sbody = 7.309256e-13
m.xm14.msky130_fd_pr__pfet_g5v0d10v5#body = 2.100000e+00
m.xm14.msky130_fd_pr__pfet_g5v0d10v5#dbody = 2.100000e+00
m.xm14.msky130_fd_pr__pfet_g5v0d10v5#sbody = 2.100000e+00
m.xm15.msky130_fd_pr__nfet_g5v0d10v5#body = 2.666272e-16
m.xm15.msky130_fd_pr__nfet_g5v0d10v5#dbody = 6.665618e-16
m.xm15.msky130_fd_pr__nfet_g5v0d10v5#sbody = 1.333197e-16
m.xm16.msky130_fd_pr__nfet_g5v0d10v5#body = 4.101312e-11
m.xm16.msky130_fd_pr__nfet_g5v0d10v5#dbody = 7.300668e-11
m.xm16.msky130_fd_pr__nfet_g5v0d10v5#sbody = 5.003267e-11
m.xm17.msky130_fd_pr__pfet_g5v0d10v5#body = 2.100000e+00
m.xm17.msky130_fd_pr__pfet_g5v0d10v5#dbody = 2.100000e+00
m.xm17.msky130_fd_pr__pfet_g5v0d10v5#sbody = 2.100000e+00
m.xm18.msky130_fd_pr__nfet_g5v0d10v5#body = 1.690687e-11
m.xm18.msky130_fd_pr__nfet_g5v0d10v5#dbody = 4.226646e-11
m.xm18.msky130_fd_pr__nfet_g5v0d10v5#sbody = 8.453449e-12
m.xm19.msky130_fd_pr__nfet_g5v0d10v5#body = 1.403625e-11
m.xm19.msky130_fd_pr__nfet_g5v0d10v5#dbody = 3.049808e-11
m.xm19.msky130_fd_pr__nfet_g5v0d10v5#sbody = 1.161067e-11
m.xm20.msky130_fd_pr__nfet_g5v0d10v5#body = 1.336060e-11
m.xm20.msky130_fd_pr__nfet_g5v0d10v5#dbody = 3.340148e-11
m.xm20.msky130_fd_pr__nfet_g5v0d10v5#sbody = 6.680312e-12
m.xm22.msky130_fd_pr__nfet_g5v0d10v5#body = 2.296307e-12
m.xm22.msky130_fd_pr__nfet_g5v0d10v5#dbody = 5.740762e-12
m.xm22.msky130_fd_pr__nfet_g5v0d10v5#sbody = 1.148158e-12
m.xm24.msky130_fd_pr__pfet_g5v0d10v5#body = 2.100000e+00
m.xm24.msky130_fd_pr__pfet_g5v0d10v5#dbody = 2.100000e+00
m.xm24.msky130_fd_pr__pfet_g5v0d10v5#sbody = 2.100000e+00
m.xm26.msky130_fd_pr__pfet_g5v0d10v5#body = 2.100000e+00
m.xm26.msky130Note: Starting true gmin stepping
Trying gmin =   1.0000E-03 Note: One successful gmin step
Trying gmin =   1.0000E-04 Note: One successful gmin step
Trying gmin =   1.0000E-05 Note: One successful gmin step
Trying gmin =   1.0000E-06 Note: One successful gmin step
Trying gmin =   1.0000E-07 Warning: Further gmin increment
Trying gmin =   5.6234E-07 Note: One successful gmin step
Trying gmin =   2.3714E-07 Warning: Further gmin increment
Trying gmin =   4.5316E-07 Note: One successful gmin step
Trying gmin =   4.0679E-07 Note: One successful gmin step
Trying gmin =   3.4599E-07 Note: One successful gmin step
Trying gmin =   2.7139E-07 Note: One successful gmin step
Trying gmin =   1.8853E-07 Note: One successful gmin step
Trying gmin =   1.0917E-07 Note: One successful gmin step
Trying gmin =   6.3209E-08 Note: One successful gmin step
Trying gmin =   3.6600E-08 Note: One successful gmin step
Trying gmin =   2.7850E-08 Note: One successful gmin step
Trying gmin =   1.8486E-08 Note: One successful gmin step
Trying gmin =   9.9972E-09 Note: One successful gmin step
Trying gmin =   3.9758E-09 Note: One successful gmin step
Trying gmin =   9.9712E-10 Note: One successful gmin step
Trying gmin =   1.2524E-10 Note: One successful gmin step
Trying gmin =   1.2524E-11 Note: One successful gmin step
Trying gmin =   1.2524E-12 Note: One successful gmin step
Trying gmin =   1.0000E-12 Note: One successful gmin step
Note: True gmin stepping completed
_fd_pr__pfet_g5v0d10v5#dbody = 2.100000e+00
m.xm26.msky130_fd_pr__pfet_g5v0d10v5#sbody = 2.100000e+00
mir = 9.298221e-01
net1 = 7.710352e-01
net2 = 2.131749e-05
net3 = 8.247856e-01
net4 = 1.836968e-01
net5 = 9.391937e-01
net6 = 1.018115e+00
net7 = 8.247067e-01
net8 = 1.002107e+00
net9 = 1.034709e+00
net10 = 1.169449e-01
net11 = 1.352520e+00
net12 = 1.352520e+00
net13 = 0.000000e+00
out = 1.352520e+00
pos = 1.099735e+00
q.xq2.qsky130_fd_pr__pnp_05v5_w0p68l0p68#collcx = 1.931782e-03
q.xq3.qsky130_fd_pr__pnp_05v5_w0p68l0p68#collcx = 2.432577e-04
q.xq4.qsky130_fd_pr__pnp_05v5_w0p68l0p68#collcx = 2.432577e-04
q.xq8.qsky130_fd_pr__pnp_05v5_w0p68l0p68#collcx = 2.432577e-04
q.xq10.qsky130_fd_pr__pnp_05v5_w0p68l0p68#collcx = 2.432577e-04
q.xq12.qsky130_fd_pr__pnp_05v5_w0p68l0p68#collcx = 2.432577e-04
q.xq14.qsky130_fd_pr__pnp_05v5_w0p68l0p68#collcx = 2.432577e-04
q.xq16.qsky130_fd_pr__pnp_05v5_w0p68l0p68#collcx = 2.432577e-04
q.xq18.qsky130_fd_pr__pnp_05v5_w0p68l0p68#collcx = 2.432577e-04
vb = 1.068846e+00
vdd = 2.100000e+00
vs#branch = -1.75112e-04
vt#branch = 0.000000e+00
xc1.a = 0.000000e+00
xc1.b1 = 0.000000e+00
xc3.a = 1.352520e+00
xc3.b1 = 1.352520e+00
xr1.xsky130_fd_pr__res_xhigh_po_0p69.ra = 8.275646e-01
xr2.xsky130_fd_pr__res_xhigh_po_0p69.ra = 8.276435e-01
xr3.xsky130_fd_pr__res_xhigh_po_0p69.ra = 2.082910e-03
xr4.xsky130_fd_pr__res_xhigh_po_0p69.ra = 7.718752e-01
xr5.xsky130_fd_pr__res_xhigh_po_0p69.ra = 2.082697e-03
xr6.xsky130_fd_pr__res_xhigh_po_0p69.ra = 3.040874e-03
xr7.xsky130_fd_pr__res_xhigh_po_0p69.ra = 1.352520e+00
xr8.xsky130_fd_pr__res_xhigh_po_0p69.ra = 1.104354e+00
xr9.xsky130_fd_pr__res_xhigh_po_0p69.ra = 4.768550e-03
Doing analysis at TEMP = 0.000000 and TNOM = 27.000000


No. of Data Rows : 91
Note: Starting true gmin stepping
Trying gmin =   1.0000E-03 Note: One successful gmin step
Trying gmin =   1.0000E-04 Note: One successful gmin step
Trying gmin =   1.0000E-05 Note: One successful gmin step
Trying gmin =   1.0000E-06 Note: One successful gmin step
Trying gmin =   1.0000E-07 Warning: Further gmin increment
Trying gmin =   5.6234E-07 Note: One successful gmin step
Trying gmin =   2.3714E-07 Warning: Further gmin increment
Trying gmin =   4.5316E-07 Note: One successful gmin step
Trying gmin =   4.0679E-07 Note: One successful gmin step
Trying gmin =   3.4599E-07 Note: One successful gmin step
Trying gmin =   2.7139E-07 Note: One successful gmin step
Trying gmin =   1.8853E-07 Note: One successful gmin step
Trying gmin =   1.0917E-07 Note: One successful gmin step
Trying gmin =   6.3209E-08 Note: One successful gmin step
Trying gmin =   3.6600E-08 Note: One successful gmin step
Trying gmin =   2.7850E-08 Note: One successful gmin step
Trying gmin =   1.8486E-08 Note: One successful gmin step
Trying gmin =   9.9972E-09 Note: One successful gmin step
Trying gmin =   3.9758E-09 Note: One successful gmin step
Trying gmin =   9.9712E-10 Note: One successful gmin step
Trying gmin =   1.2524E-10 Note: One successful gmin step
Trying gmin =   1.2524E-11 Note: One successful gmin step
Trying gmin =   1.2524E-12 Note: One successful gmin step
Trying gmin =   1.0000E-12 Note: One successful gmin step
Note: True gmin stepping completed
 Reference value :  1.00000e+00Note: Starting true gmin stepping
Trying gmin =   1.0000E-03 Note: One successful gmin step
Trying gmin =   1.0000E-04 Note: One successful gmin step
Trying gmin =   1.0000E-05 Note: One successful gmin step
Trying gmin =   1.0000E-06 Note: One successful gmin step
Trying gmin =   1.0000E-07 Warning: Further gmin increment
Trying gmin =   5.6234E-07 Note: One successful gmin step
Trying gmin =   3.1623E-07 Note: One successful gmin step
Trying gmin =   1.3335E-07 Note: One successful gmin step
Trying gmin =   3.6517E-08 Note: One successful gmin step
Trying gmin =   1.9110E-08 Note: One successful gmin step
Trying gmin =   7.2339E-09 Note: One successful gmin step
Trying gmin =   1.6849E-09 Note: One successful gmin step
Trying gmin =   1.8938E-10 Note: One successful gmin step
Trying gmin =   1.8938E-11 Note: One successful gmin step
Trying gmin =   1.8938E-12 Note: One successful gmin step
Trying gmin =   1.0000E-12 Note: One successful gmin step
Note: True gmin stepping completed
 Reference value :  2.80000e+00pm                  =  6.832553e+01
Doing analysis at TEMP = 0.000000 and TNOM = 27.000000


No. of Data Rows : 91
psrr100             =  -5.412216e+01
psrr100k            =  -2.611201e+01
Doing analysis at TEMP = 0.000000 and TNOM = 27.000000


No. of Data Rows : 86
temp_coeff = 5.009960e+01
Doing analysis at TEMP = 0.000000 and TNOM = 27.000000


No. of Data Rows : 141
vldo_sup_2          =  2.155932e+00
vldo_sup_2_8        =  2.907252e+00
line_reg = 9.391500e-01
Note: No ".plot", ".print", or ".fourier" lines; no simulations run
vin                 =  1.541606e+00
dropout = -2.22394e-01
