 Reference value :  0.00000e+00
No compatibility mode selected!


Circuit: * ldo netlist 

Doing analysis at TEMP = 27.000000 and TNOM = 27.000000


No. of Data Rows : 1
bg_out = 1.098999e+00
inn = 1.144222e+00
inp = 1.144153e+00
l1#branch = 0.000000e+00
ldo_out = 1.807031e+00
m.xm1.msky130_fd_pr__nfet_g5v0d10v5#body = 1.374626e-11
m.xm1.msky130_fd_pr__nfet_g5v0d10v5#dbody = 2.869439e-11
m.xm1.msky130_fd_pr__nfet_g5v0d10v5#sbody = 1.254440e-11
m.xm2.msky130_fd_pr__pfet_g5v0d10v5#body = 2.100000e+00
m.xm2.msky130_fd_pr__pfet_g5v0d10v5#dbody = 2.100000e+00
m.xm2.msky130_fd_pr__pfet_g5v0d10v5#sbody = 2.100000e+00
m.xm3.msky130_fd_pr__pfet_g5v0d10v5#body = 2.100000e+00
m.xm3.msky130_fd_pr__pfet_g5v0d10v5#dbody = 2.100000e+00
m.xm3.msky130_fd_pr__pfet_g5v0d10v5#sbody = 2.100000e+00
m.xm4.msky130_fd_pr__pfet_g5v0d10v5#body = 2.100000e+00
m.xm4.msky130_fd_pr__pfet_g5v0d10v5#dbody = 2.100000e+00
m.xm4.msky130_fd_pr__pfet_g5v0d10v5#sbody = 2.100000e+00
m.xm5.msky130_fd_pr__pfet_g5v0d10v5#body = 2.100000e+00
m.xm5.msky130_fd_pr__pfet_g5v0d10v5#dbody = 2.100000e+00
m.xm5.msky130_fd_pr__pfet_g5v0d10v5#sbody = 2.100000e+00
m.xm6.msky130_fd_pr__nfet_g5v0d10v5#body = 1.184401e-11
m.xm6.msky130_fd_pr__nfet_g5v0d10v5#dbody = 2.961002e-11
m.xm6.msky130_fd_pr__nfet_g5v0d10v5#sbody = 5.922011e-12
m.xm7.msky130_fd_pr__pfet_g5v0d10v5#body = 2.100000e+00
m.xm7.msky130_fd_pr__pfet_g5v0d10v5#dbody = 2.100000e+00
m.xm7.msky130_fd_pr__pfet_g5v0d10v5#sbody = 2.100000e+00
m.xm8.msky130_fd_pr__pfet_g5v0d10v5#body = 2.100000e+00
m.xm8.msky130_fd_pr__pfet_g5v0d10v5#dbody = 2.100000e+00
m.xm8.msky130_fd_pr__pfet_g5v0d10v5#sbody = 2.100000e+00
m.xm9.msky130_fd_pr__nfet_g5v0d10v5#body = 1.441232e-11
m.xm9.msky130_fd_pr__nfet_g5v0d10v5#dbody = 3.148592e-11
m.xm9.msky130_fd_pr__nfet_g5v0d10v5#sbody = 1.175105e-11
m.xm10.msky130_fd_pr__nfet_g5v0d10v5#body = 1.412230e-11
m.xm10.msky130_fd_pr__nfet_g5v0d10v5#dbody = 3.076087e-11
m.xm10.msky130_fd_pr__nfet_g5v0d10v5#sbody = 1.160604e-11
m.xm11.msky130_fd_pr__pfet_g5v0d10v5#body = 2.100000e+00
m.xm11.msky130_fd_pr__pfet_g5v0d10v5#dbody = 2.100000e+00
m.xm11.msky130_fd_pr__pfet_g5v0d10v5#sbody = 2.100000e+00
m.xm12.msky130_fd_pr__pfet_g5v0d10v5#body = 2.100000e+00
m.xm12.msky130_fd_pr__pfet_g5v0d10v5#dbody = 2.100000e+00
m.xm12.msky130_fd_pr__pfet_g5v0d10v5#sbody = 2.100000e+00
m.xm13.msky130_fd_pr__nfet_g5v0d10v5#body = 2.271087e-12
m.xm13.msky130_fd_pr__nfet_g5v0d10v5#dbody = 5.677708e-12
m.xm13.msky130_fd_pr__nfet_g5v0d10v5#sbody = 1.135554e-12
m.xm14.msky130_fd_pr__pfet_g5v0d10v5#body = 2.100000e+00
m.xm14.msky130_fd_pr__pfet_g5v0d10v5#dbody = 2.100000e+00
m.xm14.msky130_fd_pr__pfet_g5v0d10v5#sbody = 2.100000e+00
m.xm15.msky130_fd_pr__nfet_g5v0d10v5#body = 7.447152e-17
m.xm15.msky130_fd_pr__nfet_g5v0d10v5#dbody = 1.861751e-16
m.xm15.msky130_fd_pr__nfet_g5v0d10v5#sbody = 3.723942e-17
m.xm16.msky130_fd_pr__nfet_g5v0d10v5#body = 4.056146e-11
m.xm16.msky130_fd_pr__nfet_g5v0d10v5#dbody = 7.278942e-11
m.xm16.msky130_fd_pr__nfet_g5v0d10v5#sbody = 4.889497e-11
m.xm17.msky130_fd_pr__pfet_g5v0d10v5#body = 2.100000e+00
m.xm17.msky130_fd_pr__pfet_g5v0d10v5#dbody = 2.100000e+00
m.xm17.msky130_fd_pr__pfet_g5v0d10v5#sbody = 2.100000e+00
m.xm18.msky130_fd_pr__nfet_g5v0d10v5#body = 1.627116e-11
m.xm18.msky130_fd_pr__nfet_g5v0d10v5#dbody = 4.067771e-11
m.xm18.msky130_fd_pr__nfet_g5v0d10v5#sbody = 8.135595e-12
m.xm19.msky130_fd_pr__nfet_g5v0d10v5#body = 1.383732e-11
m.xm19.msky130_fd_pr__nfet_g5v0d10v5#dbody = 2.892202e-11
m.xm19.msky130_fd_pr__nfet_g5v0d10v5#sbody = 1.258993e-11
m.xm20.msky130_fd_pr__nfet_g5v0d10v5#body = 1.211970e-11
m.xm20.msky130_fd_pr__nfet_g5v0d10v5#dbody = 3.029923e-11
m.xm20.msky130_fd_pr__nfet_g5v0d10v5#sbody = 6.059863e-12
m.xm22.msky130_fd_pr__nfet_g5v0d10v5#body = 2.838348e-12
m.xm22.msky130_fd_pr__nfet_g5v0d10v5#dbody = 7.095865e-12
m.xm22.msky130_fd_pr__nfet_g5v0d10v5#sbody = 1.419179e-12
m.xm24.msky130_fd_pr__pfet_g5v0d10v5#body = 2.100000e+00
m.xm24.msky130_fd_pr__pfet_g5v0d10v5#dbody = 2.100000e+00
m.xm24.msky130_fd_pr__pfet_g5v0d10v5#sbody = 2.100000e+00
m.xm26.msky130_fd_pr__pfet_g5v0d10v5#body = 2.100000e+00
m.xm26.msky130_fd_pr__pfet_g5v0d10v5#dbody = 2.100000e+00
m.xm26.msky130_fd_pr__pfet_g5v0d10v5#sbody = 2.100000e+00
mir = 8.725027e-01
net1 = 7.274357e-01
net2 = 5.729988e-06
net3 = 7.872941e-01
net4 = 2.265033e-01
net5 = 8.797868e-01
net6 = 9.469560e-01
net7 = 7.872237e-01
net8 = 9.477498e-01
net9 = 9.709514e-01
net10 = 1.815566e-01
net11 = 1.301555e+00
net12 = 1.301555e+00
net13 = 0.000000e+00
out = 1.301555e+00
pos = 1.099251e+00
q.xq2.qsky130_fd_pr__pnp_05v5_w0p68l0p68#collcx = 2.275571e-03
q.xq3.qsky130_fd_pr__pnp_05v5_w0p68l0p68#collcx = 2.868075e-04
q.xq4.qsky130_fd_pr__pnp_05v5_w0p68l0p68#collcx = 2.868075e-04
q.xq8.qsky130_fd_pr__pnp_05v5_w0p68l0p68#collcx = 2.868075e-04
q.xq10.qsky130_fd_pr__pnp_05v5_w0p68l0p68#collcx = 2.868075e-04
q.xq12.qsky130_fd_pr__pnp_05v5_w0p68l0p68#collcx = 2.868075e-04
q.xq14.qsky130_fd_pr__pnp_05v5_w0p68l0p68#collcx = 2.868075e-04
q.xq16.qsky130_fd_pr__pnp_05v5_w0p68l0p68#collcx = 2.868075e-04
q.xq18.qsky130_fd_pr__pnp_05v5_w0p68l0p68#collcx = 2.868075e-04
vb = 9.694452e-01
vdd = 2.100000e+00
vs#branch = -1.82607e-04
vt#branch = 0.000000e+00
xc1.a = 0.000000e+00
xc1.b1 = 0.000000e+00
xc3.a = 1.301555e+00
xc3.b1 = 1.301555e+00
xr1.xsky130_fd_pr__res_xhigh_po_0p69.ra = 7.902055e-01
xr2.xsky130_fd_pr__res_xhigh_po_0p69.ra = 7.902758e-01
xr3.xsky130_fd_pr__res_xhigh_po_0p69.ra = 2.064355e-03
xr4.xsky130_fd_pr__res_xhigh_po_0p69.ra = 7.284097e-01
xr5.xsky130_fd_pr__res_xhigh_po_0p69.ra = 2.064158e-03
xr6.xsky130_fd_pr__res_xhigh_po_0p69.ra = 3.165860e-03
xr7.xsky130_fd_pr__res_xhigh_po_0p69.ra = 1.301555e+00
xr8.xsky130_fd_pr__res_xhigh_po_0p69.ra = 1.104060e+00
xr9.xsky130_fd_pr__res_xhigh_po_0p69.ra = 4.963932e-03
Doing analysis at TEMP = 27.000000 and TNOM = 27.000000


No. of Data Rows : 91
Note: Starting true gmin stepping
Trying gmin =   1.0000E-03 Note: One successful gmin step
Trying gmin =   1.0000E-04 Note: One successful gmin step
Trying gmin =   1.0000E-05 Note: One successful gmin step
Trying gmin =   1.0000E-06 Note: One successful gmin step
Trying gmin =   1.0000E-07 Note: One successful gmin step
Trying gmin =   1.0000E-08 Warning: Further gmin increment
Trying gmin =   5.6234E-08 Warning: Further gmin increment
Trying gmin =   8.6596E-08 Note: One successful gmin step
Trying gmin =   6.9783E-08 Warning: Further gmin increment
Trying gmin =   8.2047E-08 Note: One successful gmin step
Trying gmin =   7.5667E-08 Warning: Further gmin increment
Trying gmin =   8.0403E-08 Note: One successful gmin step
Trying gmin =   7.7999E-08 Note: One successful gmin step
Trying gmin =   7.4527E-08 Warning: Further gmin increment
Trying gmin =   7.7116E-08 Note: One successful gmin step
Trying gmin =   7.5811E-08 Note: One successful gmin step
Trying gmin =   7.4527E-08 Note: One successful gmin step
Trying gmin =   7.2643E-08 Note: One successful gmin step
Trying gmin =   6.9905E-08 Note: One successful gmin step
Trying gmin =   6.5990E-08 Note: One successful gmin step
Trying gmin =   6.0525E-08 Note: One successful gmin step
Trying gmin =   5.3164E-08 Note: One successful gmin step
Trying gmin =   4.3767E-08 Note: One successful gmin step
Trying gmin =   3.2692E-08 Note: One successful gmin step
Trying gmin =   2.1105E-08 Note: One successful gmin step
Trying gmin =   1.0947E-08 Note: One successful gmin step
Trying gmin =   4.0895E-09 Note: One successful gmin step
Trying gmin =   9.3373E-10 Note: One successful gmin step
Trying gmin =   1.0187E-10 Note: One successful gmin step
Trying gmin =   1.0187E-11 Note: One successful gmin step
Trying gmin =   1.0187E-12 Note: One successful gmin step
Trying gmin =   1.0000E-12 Note: One successful gmin step
Note: True gmin stepping completed
 Reference value :  2.80000e+00Note: Starting true gmin stepping
Trying gmin =   1.0000E-03 Note: One successful gmin step
Trying gmin =   1.0000E-04 Note: One successful gmin step
Trying gmin =   1.0000E-05 Note: One successful gmin step
Trying gmin =   1.0000E-06 Note: One successful gmin step
Trying gmin =   1.0000E-07 Note: One successful gmin step
Trying gmin =   1.0000E-08 Warning: Further gmin increment
Trying gmin =   5.6234E-08 Note: One successful gmin step
Trying gmin =   2.3714E-08 Note: One successful gmin step
Trying gmin =   6.4938E-09 Note: One successful gmin step
Trying gmin =   9.3057E-10 Warning: Further gmin increment
Trying gmin =   3.9954E-09 Note: One successful gmin step
Trying gmin =   1.9282E-09 Note: One successful gmin step
Trying gmin =   6.4647E-10 Note: One successful gmin step
Trying gmin =   1.2550E-10 Note: One successful gmin step
Trying gmin =   1.2550E-11 Note: One successful gmin step
Trying gmin =   1.2550E-12 Note: One successful gmin step
Trying gmin =   1.0000E-12 Note: One successful gmin step
Note: True gmin stepping completed
Note: Starting true gmin stepping
Trying gmin =   1.0000E-03 Note: One successful gmin step
Trying gmin =   1.0000E-04 Note: One successful gmin step
Trying gmin =   1.0000E-05 Note: One successful gmin step
Trying gmin =   1.0000E-06 Note: One successful gmin step
Trying gmin =   1.0000E-07 Note: One successful gmin step
Trying gmin =   1.0000E-08 Warning: Further gmin increment
Trying gmin =   5.6234E-08 Note: One successful gmin step
Trying gmin =   2.3714E-08 Note: One successful gmin step
Trying gmin =   6.4938E-09 Note: One successful gmin step
Trying gmin =   9.3057E-10 Warning: Further gmin increment
Trying gmin =   3.9954E-09 Note: One successful gmin step
Trying gmin =   1.9282E-09 Note: One successful gmin step
Trying gmin =   6.4647E-10 Warning: Further gmin increment
Trying gmin =   1.4672E-09 Warning: Further gmin increment
Trying gmin =   1.8009E-09 Note: One successful gmin step
Trying gmin =   1.6255E-09 Warning: Further gmin increment
Trying gmin =   1.7554E-09 Note: One successful gmin step
Trying gmin =   1.6892E-09 Note: One successful gmin step
Trying gmin =   1.5946E-09 Note: One successful gmin step
Trying gmin =   1.4626E-09 Note: One successful gmin step
Trying gmin =   1.2847E-09 Note: One successful gmin step
Trying gmin =   1.0576E-09 Note: One successful gmin step
Trying gmin =   7.8999E-10 Note: One successful gmin step
Trying gmin =   5.1000E-10 Note: One successful gmin step
Trying gmin =   2.6453E-10 Note: One successful gmin step
Trying gmin =   9.8821E-11 Note: One successful gmin step
Trying gmin =   2.2563E-11 Note: One successful gmin step
Trying gmin =   2.4617E-12 Note: One successful gmin step
Trying gmin =   1.0000E-12 Note: One successful gmin step
Note: True gmin stepping completed
 Reference value :  1.30000e+00pm                  =  6.592415e+01
Doing analysis at TEMP = 27.000000 and TNOM = 27.000000


No. of Data Rows : 91
psrr100             =  -7.539961e+01
psrr100k            =  -2.597850e+01
Doing analysis at TEMP = 27.000000 and TNOM = 27.000000


No. of Data Rows : 86
temp_coeff = 5.844011e+01
Doing analysis at TEMP = 27.000000 and TNOM = 27.000000


No. of Data Rows : 141
vldo_sup_2          =  1.807038e+00
vldo_sup_2_8        =  1.806899e+00
line_reg = 1.737500e-04
Note: No ".plot", ".print", or ".fourier" lines; no simulations run
vin                 =  1.764125e+00
dropout = 1.250000e-04
