 Reference value :  0.00000e+00
No compatibility mode selected!


Circuit: * ldo netlist 

Doing analysis at TEMP = 27.000000 and TNOM = 27.000000


No. of Data Rows : 1
bg_out = 1.097395e+00
inn = 1.141904e+00
inp = 1.141872e+00
l1#branch = 0.000000e+00
ldo_out = 1.803787e+00
m.xm1.msky130_fd_pr__nfet_g5v0d10v5#body = 1.887159e-11
m.xm1.msky130_fd_pr__nfet_g5v0d10v5#dbody = 4.146397e-11
m.xm1.msky130_fd_pr__nfet_g5v0d10v5#sbody = 1.515079e-11
m.xm2.msky130_fd_pr__pfet_g5v0d10v5#body = 2.500000e+00
m.xm2.msky130_fd_pr__pfet_g5v0d10v5#dbody = 2.500000e+00
m.xm2.msky130_fd_pr__pfet_g5v0d10v5#sbody = 2.500000e+00
m.xm3.msky130_fd_pr__pfet_g5v0d10v5#body = 2.500000e+00
m.xm3.msky130_fd_pr__pfet_g5v0d10v5#dbody = 2.500000e+00
m.xm3.msky130_fd_pr__pfet_g5v0d10v5#sbody = 2.500000e+00
m.xm4.msky130_fd_pr__pfet_g5v0d10v5#body = 2.500000e+00
m.xm4.msky130_fd_pr__pfet_g5v0d10v5#dbody = 2.500000e+00
m.xm4.msky130_fd_pr__pfet_g5v0d10v5#sbody = 2.500000e+00
m.xm5.msky130_fd_pr__pfet_g5v0d10v5#body = 2.500000e+00
m.xm5.msky130_fd_pr__pfet_g5v0d10v5#dbody = 2.500000e+00
m.xm5.msky130_fd_pr__pfet_g5v0d10v5#sbody = 2.500000e+00
m.xm6.msky130_fd_pr__nfet_g5v0d10v5#body = 1.179203e-11
m.xm6.msky130_fd_pr__nfet_g5v0d10v5#dbody = 2.948006e-11
m.xm6.msky130_fd_pr__nfet_g5v0d10v5#sbody = 5.896018e-12
m.xm7.msky130_fd_pr__pfet_g5v0d10v5#body = 2.500000e+00
m.xm7.msky130_fd_pr__pfet_g5v0d10v5#dbody = 2.500000e+00
m.xm7.msky130_fd_pr__pfet_g5v0d10v5#sbody = 2.500000e+00
m.xm8.msky130_fd_pr__pfet_g5v0d10v5#body = 2.500000e+00
m.xm8.msky130_fd_pr__pfet_g5v0d10v5#dbody = 2.500000e+00
m.xm8.msky130_fd_pr__pfet_g5v0d10v5#sbody = 2.500000e+00
m.xm9.msky130_fd_pr__nfet_g5v0d10v5#body = 1.948346e-11
m.xm9.msky130_fd_pr__nfet_g5v0d10v5#dbody = 4.411023e-11
m.xm9.msky130_fd_pr__nfet_g5v0d10v5#sbody = 1.434011e-11
m.xm10.msky130_fd_pr__nfet_g5v0d10v5#body = 1.922206e-11
m.xm10.msky130_fd_pr__nfet_g5v0d10v5#dbody = 4.345676e-11
m.xm10.msky130_fd_pr__nfet_g5v0d10v5#sbody = 1.420941e-11
m.xm11.msky130_fd_pr__pfet_g5v0d10v5#body = 2.500000e+00
m.xm11.msky130_fd_pr__pfet_g5v0d10v5#dbody = 2.500000e+00
m.xm11.msky130_fd_pr__pfet_g5v0d10v5#sbody = 2.500000e+00
m.xm12.msky130_fd_pr__pfet_g5v0d10v5#body = 2.500000e+00
m.xm12.msky130_fd_pr__pfet_g5v0d10v5#dbody = 2.500000e+00
m.xm12.msky130_fd_pr__pfet_g5v0d10v5#sbody = 2.500000e+00
m.xm13.msky130_fd_pr__nfet_g5v0d10v5#body = 2.297834e-12
m.xm13.msky130_fd_pr__nfet_g5v0d10v5#dbody = 5.744575e-12
m.xm13.msky130_fd_pr__nfet_g5v0d10v5#sbody = 1.148927e-12
m.xm14.msky130_fd_pr__pfet_g5v0d10v5#body = 2.500000e+00
m.xm14.msky130_fd_pr__pfet_g5v0d10v5#dbody = 2.500000e+00
m.xm14.msky130_fd_pr__pfet_g5v0d10v5#sbody = 2.500000e+00
m.xm15.msky130_fd_pr__nfet_g5v0d10v5#body = 1.316201e-15
m.xm15.msky130_fd_pr__nfet_g5v0d10v5#dbody = 3.290439e-15
m.xm15.msky130_fd_pr__nfet_g5v0d10v5#sbody = 6.581650e-16
m.xm16.msky130_fd_pr__nfet_g5v0d10v5#body = 4.553249e-11
m.xm16.msky130_fd_pr__nfet_g5v0d10v5#dbody = 8.527494e-11
m.xm16.msky130_fd_pr__nfet_g5v0d10v5#sbody = 5.132254e-11
m.xm17.msky130_fd_pr__pfet_g5v0d10v5#body = 2.500000e+00
m.xm17.msky130_fd_pr__pfet_g5v0d10v5#dbody = 2.500000e+00
m.xm17.msky130_fd_pr__pfet_g5v0d10v5#sbody = 2.500000e+00
m.xm18.msky130_fd_pr__nfet_g5v0d10v5#body = 1.773737e-11
m.xm18.msky130_fd_pr__nfet_g5v0d10v5#dbody = 4.433995e-11
m.xm18.msky130_fd_pr__nfet_g5v0d10v5#sbody = 8.868696e-12
m.xm19.msky130_fd_pr__nfet_g5v0d10v5#body = 1.892869e-11
m.xm19.msky130_fd_pr__nfet_g5v0d10v5#dbody = 4.160673e-11
m.xm19.msky130_fd_pr__nfet_g5v0d10v5#sbody = 1.517934e-11
m.xm20.msky130_fd_pr__nfet_g5v0d10v5#body = 1.206544e-11
m.xm20.msky130_fd_pr__nfet_g5v0d10v5#dbody = 3.016358e-11
m.xm20.msky130_fd_pr__nfet_g5v0d10v5#sbody = 6.032732e-12
m.xm22.msky130_fd_pr__nfet_g5v0d10v5#body = 2.860211e-12
m.xm22.msky130_fd_pr__nfet_g5v0d10v5#dbody = 7.150522e-12
m.xm22.msky130_fd_pr__nfet_g5v0d10v5#sbody = 1.430110e-12
m.xm24.msky130_fd_pr__pfet_g5v0d10v5#body = 2.500000e+00
m.xm24.msky130_fd_pr__pfet_g5v0d10v5#dbody = 2.500000e+00
m.xm24.msky130_fd_pr__pfet_g5v0d10v5#sbody = 2.500000e+00
m.xm26.msky130_fd_pr__pfet_g5v0d10v5#body = 2.500000e+00
m.xm26.msky130_fd_pr__pfet_g5v0d10v5#dbody = 2.500000e+00
m.xm26.msky130_fd_pr__pfet_g5v0d10v5#sbody = 2.500000e+00
mir = 1.280780e+00
net1 = 7.262664e-01
net2 = 1.012778e-04
net3 = 7.859664e-01
net4 = 2.282522e-01
net5 = 1.285348e+00
net6 = 9.427973e-01
net7 = 7.859336e-01
net8 = 1.353590e+00
net9 = 1.374501e+00
net10 = 1.836964e-01
net11 = 1.418721e+00
net12 = 1.418721e+00
net13 = 0.000000e+00
out = 1.418721e+00
pos = 1.097580e+00
q.xq2.qsky130_fd_pr__pnp_05v5_w0p68l0p68#collcx = 2.181689e-03
q.xq3.qsky130_fd_pr__pnp_05v5_w0p68l0p68#collcx = 2.748374e-04
q.xq4.qsky130_fd_pr__pnp_05v5_w0p68l0p68#collcx = 2.748374e-04
q.xq8.qsky130_fd_pr__pnp_05v5_w0p68l0p68#collcx = 2.748374e-04
q.xq10.qsky130_fd_pr__pnp_05v5_w0p68l0p68#collcx = 2.748374e-04
q.xq12.qsky130_fd_pr__pnp_05v5_w0p68l0p68#collcx = 2.748374e-04
q.xq14.qsky130_fd_pr__pnp_05v5_w0p68l0p68#collcx = 2.748374e-04
q.xq16.qsky130_fd_pr__pnp_05v5_w0p68l0p68#collcx = 2.748374e-04
q.xq18.qsky130_fd_pr__pnp_05v5_w0p68l0p68#collcx = 2.748374e-04
vb = 9.651044e-01
vdd = 2.500000e+00
vs#branch = -1.01486e-02
vt#branch = 0.000000e+00
xc1.a = 0.000000e+00
xc1.b1 = 0.000000e+00
xc3.a = 1.418721e+00
xc3.b1 = 1.418721e+00
xr1.xsky130_fd_pr__res_xhigh_po_0p69.ra = 7.914046e-01
xr2.xsky130_fd_pr__res_xhigh_po_0p69.ra = 7.914375e-01
xr3.xsky130_fd_pr__res_xhigh_po_0p69.ra = 3.785533e-03
xr4.xsky130_fd_pr__res_xhigh_po_0p69.ra = 7.280554e-01
xr5.xsky130_fd_pr__res_xhigh_po_0p69.ra = 3.785364e-03
xr6.xsky130_fd_pr__res_xhigh_po_0p69.ra = 5.806683e-03
xr7.xsky130_fd_pr__res_xhigh_po_0p69.ra = 1.418721e+00
xr8.xsky130_fd_pr__res_xhigh_po_0p69.ra = 1.106403e+00
xr9.xsky130_fd_pr__res_xhigh_po_0p69.ra = 9.108158e-03
Doing analysis at TEMP = 27.000000 and TNOM = 27.000000


No. of Data Rows : 91
Error: no such vector PM
Note: Starting true gmin stepping
Trying gmin =   1.0000E-03 Note: One successful gmin step
Trying gmin =   1.0000E-04 Note: One successful gmin step
Trying gmin =   1.0000E-05 Note: One successful gmin step
Trying gmin =   1.0000E-06 Note: One successful gmin step
Trying gmin =   1.0000E-07 Note: One successful gmin step
Trying gmin =   1.0000E-08 Note: One successful gmin step
Trying gmin =   1.0000E-09 Warning: Further gmin increment
Trying gmin =   5.6234E-09 Note: One successful gmin step
Trying gmin =   2.3714E-09 Warning: Further gmin increment
Trying gmin =   4.5316E-09 Note: One successful gmin step
Trying gmin =   3.2781E-09 Note: One successful gmin step
Trying gmin =   2.0169E-09 Note: One successful gmin step
Trying gmin =   9.7338E-10 Error: -7.60931e+175, 2 out of range for ^
Warning: Further gmin increment
Trying gmin =   1.6811E-09 Note: One successful gmin step
Trying gmin =   1.5347E-09 Note: One successful gmin step
Trying gmin =   1.3388E-09 Note: One successful gmin step
Trying gmin =   1.0907E-09 Note: One successful gmin step
Trying gmin =   8.0211E-10 Note: One successful gmin step
Trying gmin =   5.0584E-10 Note: One successful gmin step
Trying gmin =   2.5332E-10 Note: One successful gmin step
Trying gmin =   8.9777E-11 Note: One successful gmin step
Trying gmin =   1.8941E-11 Note: One successful gmin step
Trying gmin =   1.8941E-12 Note: One successful gmin step
Trying gmin =   1.0000E-12 Note: One successful gmin step
Note: True gmin stepping completed
 Reference value :  1.30000e+00Note: Starting true gmin stepping
Trying gmin =   1.0000E-03 Note: One successful gmin step
Trying gmin =   1.0000E-04 Note: One successful gmin step
Trying gmin =   1.0000E-05 Note: One successful gmin step
Trying gmin =   1.0000E-06 Note: One successful gmin step
Trying gmin =   1.0000E-07 Note: One successful gmin step
Trying gmin =   1.0000E-08 Note: One successful gmin step
Trying gmin =   1.0000E-09 Warning: Further gmin increment
Trying gmin =   5.6234E-09 Note: One successful gmin step
Trying gmin =   2.3714E-09 Warning: Further gmin increment
Trying gmin =   4.5316E-09 Note: One successful gmin step
Trying gmin =   3.2781E-09 Note: One successful gmin step
Trying gmin =   2.0169E-09 Note: One successful gmin step
Trying gmin =   9.7338E-10 Warning: Further gmin increment
Trying gmin =   1.6811E-09 Note: One successful gmin step
Trying gmin =   1.2792E-09 Note: One successful gmin step
Trying gmin =   9.7338E-10 Note: One successful gmin step
Trying gmin =   6.4610E-10 Note: One successful gmin step
Trying gmin =   3.4941E-10 Note: One successful gmin step
Trying gmin =   1.3896E-10 Note: One successful gmin step
Trying gmin =   3.4850E-11 Note: One successful gmin step
Trying gmin =   4.3771E-12 Note: One successful gmin step
Trying gmin =   1.0000E-12 Note: One successful gmin step
Note: True gmin stepping completed
Note: Starting true gmin stepping
Trying gmin =   1.0000E-03 Note: One successful gmin step
Trying gmin =   1.0000E-04 Note: One successful gmin step
Trying gmin =   1.0000E-05 Note: One successful gmin step
Trying gmin =   1.0000E-06 Note: One successful gmin step
Trying gmin =   1.0000E-07 Note: One successful gmin step
Trying gmin =   1.0000E-08 Note: One successful gmin step
Trying gmin =   1.0000E-09 Warning: Further gmin increment
Trying gmin =   5.6234E-09 Note: One successful gmin step
Trying gmin =   2.3714E-09 Warning: Further gmin increment
Trying gmin =   4.5316E-09 Note: One successful gmin step
Trying gmin =   3.2781E-09 Note: One successful gmin step
Trying gmin =   2.0169E-09 Warning: Further gmin increment
Trying gmin =   2.9033E-09 Note: One successful gmin step
Trying gmin =   2.4199E-09 Note: One successful gmin step
Trying gmin =   1.8414E-09 Note: One successful gmin step
Trying gmin =   1.2222E-09 Note: One successful gmin step
Trying gmin =   6.6098E-10 Warning: Further gmin increment
Trying gmin =   1.0481E-09 Note: One successful gmin step
Trying gmin =   8.3234E-10 Note: One successful gmin step
Trying gmin =   7.4173E-10 Note: One successful gmin step
Trying gmin =   6.2397E-10 Note: One successful gmin step
Trying gmin =   4.8143E-10 Note: One successful gmin step
Trying gmin =   3.2628E-10 Note: One successful gmin step
Trying gmin =   1.8205E-10 Note: One successful gmin step
Trying gmin =   7.5870E-11 Note: One successful gmin step
Trying gmin =   2.0412E-11 Note: One successful gmin step
Trying gmin =   2.8486E-12 Note: One successful gmin step
Trying gmin =   1.0000E-12 Note: One successful gmin step
Note: True gmin stepping completed
 Reference value :  1.26000e+00
Error: measure  pm  (AT) : out of interval
 meas ac pm find p when vdb(ldo_out)=0 failed!

Doing analysis at TEMP = 27.000000 and TNOM = 27.000000


No. of Data Rows : 91
psrr100             =  -7.584709e+01
psrr100k            =  -2.686565e+01
Doing analysis at TEMP = 27.000000 and TNOM = 27.000000


No. of Data Rows : 86
temp_coeff = 4.499673e+01
Doing analysis at TEMP = 27.000000 and TNOM = 27.000000


No. of Data Rows : 141
vldo_sup_2          =  1.803850e+00
vldo_sup_2_8        =  1.803616e+00
line_reg = 2.925000e-04
Note: No ".plot", ".print", or ".fourier" lines; no simulations run
vin                 =  1.781385e+00
dropout = 1.738500e-02
