 Reference value :  0.00000e+00
No compatibility mode selected!


Circuit: * ldo netlist 

Doing analysis at TEMP = 27.000000 and TNOM = 27.000000


No. of Data Rows : 1
bg_out = 1.187579e+00
inn = 1.214828e+00
inp = 1.214803e+00
l1#branch = 0.000000e+00
ldo_out = 1.785749e+00
m.xm1.msky130_fd_pr__nfet_g5v0d10v5#body = 1.590564e-11
m.xm1.msky130_fd_pr__nfet_g5v0d10v5#dbody = 3.177175e-11
m.xm1.msky130_fd_pr__nfet_g5v0d10v5#sbody = 1.594516e-11
m.xm2.msky130_fd_pr__pfet_g5v0d10v5#body = 2.100000e+00
m.xm2.msky130_fd_pr__pfet_g5v0d10v5#dbody = 2.100000e+00
m.xm2.msky130_fd_pr__pfet_g5v0d10v5#sbody = 2.100000e+00
m.xm3.msky130_fd_pr__pfet_g5v0d10v5#body = 2.100000e+00
m.xm3.msky130_fd_pr__pfet_g5v0d10v5#dbody = 2.100000e+00
m.xm3.msky130_fd_pr__pfet_g5v0d10v5#sbody = 2.100000e+00
m.xm4.msky130_fd_pr__pfet_g5v0d10v5#body = 2.100000e+00
m.xm4.msky130_fd_pr__pfet_g5v0d10v5#dbody = 2.100000e+00
m.xm4.msky130_fd_pr__pfet_g5v0d10v5#sbody = 2.100000e+00
m.xm5.msky130_fd_pr__pfet_g5v0d10v5#body = 2.100000e+00
m.xm5.msky130_fd_pr__pfet_g5v0d10v5#dbody = 2.100000e+00
m.xm5.msky130_fd_pr__pfet_g5v0d10v5#sbody = 2.100000e+00
m.xm6.msky130_fd_pr__nfet_g5v0d10v5#body = 1.124680e-11
m.xm6.msky130_fd_pr__nfet_g5v0d10v5#dbody = 2.811700e-11
m.xm6.msky130_fd_pr__nfet_g5v0d10v5#sbody = 5.623407e-12
m.xm7.msky130_fd_pr__pfet_g5v0d10v5#body = 2.100000e+00
m.xm7.msky130_fd_pr__pfet_g5v0d10v5#dbody = 2.100000e+00
m.xm7.msky130_fd_pr__pfet_g5v0d10v5#sbody = 2.100000e+00
m.xm8.msky130_fd_pr__pfet_g5v0d10v5#body = 2.100000e+00
m.xm8.msky130_fd_pr__pfet_g5v0d10v5#dbody = 2.100000e+00
m.xm8.msky130_fd_pr__pfet_g5v0d10v5#sbody = 2.100000e+00
m.xm9.msky130_fd_pr__nfet_g5v0d10v5#body = 1.656108e-11
m.xm9.msky130_fd_pr__nfet_g5v0d10v5#dbody = 3.422689e-11
m.xm9.msky130_fd_pr__nfet_g5v0d10v5#sbody = 1.545635e-11
m.xm10.msky130_fd_pr__nfet_g5v0d10v5#body = 1.642346e-11
m.xm10.msky130_fd_pr__nfet_g5v0d10v5#dbody = 3.388285e-11
m.xm10.msky130_fd_pr__nfet_g5v0d10v5#sbody = 1.538754e-11
m.xm11.msky130_fd_pr__pfet_g5v0d10v5#body = 2.100000e+00
m.xm11.msky130_fd_pr__pfet_g5v0d10v5#dbody = 2.100000e+00
m.xm11.msky130_fd_pr__pfet_g5v0d10v5#sbody = 2.100000e+00
m.xm12.msky130_fd_pr__pfet_g5v0d10v5#body = 2.100000e+00
m.xm12.msky130_fd_pr__pfet_g5v0d10v5#dbody = 2.100000e+00
m.xm12.msky130_fd_pr__pfet_g5v0d10v5#sbody = 2.100000e+00
m.xm13.msky130_fd_pr__nfet_g5v0d10v5#body = 3.586545e-12
m.xm13.msky130_fd_pr__nfet_g5v0d10v5#dbody = 8.966353e-12
m.xm13.msky130_fd_pr__nfet_g5v0d10v5#sbody = 1.793283e-12
m.xm14.msky130_fd_pr__pfet_g5v0d10v5#body = 2.100000e+00
m.xm14.msky130_fd_pr__pfet_g5v0d10v5#dbody = 2.100000e+00
m.xm14.msky130_fd_pr__pfet_g5v0d10v5#sbody = 2.100000e+00
m.xm15.msky130_fd_pr__nfet_g5v0d10v5#body = 2.940495e-17
m.xm15.msky130_fd_pr__nfet_g5v0d10v5#dbody = 7.350980e-17
m.xm15.msky130_fd_pr__nfet_g5v0d10v5#sbody = 1.470505e-17
m.xm16.msky130_fd_pr__nfet_g5v0d10v5#body = 4.144400e-11
m.xm16.msky130_fd_pr__nfet_g5v0d10v5#dbody = 7.323065e-11
m.xm16.msky130_fd_pr__nfet_g5v0d10v5#sbody = 5.110134e-11
m.xm17.msky130_fd_pr__pfet_g5v0d10v5#body = 2.100000e+00
m.xm17.msky130_fd_pr__pfet_g5v0d10v5#dbody = 2.100000e+00
m.xm17.msky130_fd_pr__pfet_g5v0d10v5#sbody = 2.100000e+00
m.xm18.msky130_fd_pr__nfet_g5v0d10v5#body = 1.354434e-11
m.xm18.msky130_fd_pr__nfet_g5v0d10v5#dbody = 3.386083e-11
m.xm18.msky130_fd_pr__nfet_g5v0d10v5#sbody = 6.772181e-12
m.xm19.msky130_fd_pr__nfet_g5v0d10v5#body = 1.593806e-11
m.xm19.msky130_fd_pr__nfet_g5v0d10v5#dbody = 3.185281e-11
m.xm19.msky130_fd_pr__nfet_g5v0d10v5#sbody = 1.596137e-11
m.xm20.msky130_fd_pr__nfet_g5v0d10v5#body = 1.126627e-11
m.xm20.msky130_fd_pr__nfet_g5v0d10v5#dbody = 2.816567e-11
m.xm20.msky130_fd_pr__nfet_g5v0d10v5#sbody = 5.633148e-12
m.xm22.msky130_fd_pr__nfet_g5v0d10v5#body = 3.998884e-12
m.xm22.msky130_fd_pr__nfet_g5v0d10v5#dbody = 9.997206e-12
m.xm22.msky130_fd_pr__nfet_g5v0d10v5#sbody = 1.999447e-12
m.xm24.msky130_fd_pr__pfet_g5v0d10v5#body = 2.100000e+00
m.xm24.msky130_fd_pr__pfet_g5v0d10v5#dbody = 2.100000e+00
m.xm24.msky130_fd_pr__pfet_g5v0d10v5#sbody = 2.100000e+00
m.xm26.msky130_fd_pr__pfet_g5v0d10v5#body = 2.100000e+00
m.xm26.msky130_fd_pr__pfet_g5v0d10v5#dbody = 2.100000e+00
m.xm26.msky130_fd_pr__pfet_g5v0d10v5#sbody = 2.100000e+00
mir = 9.524113e-01
net1 = 7.192161e-01
net2 = 2.262604e-06
net3 = 7.788786e-01
net4 = 3.193477e-01
net5 = 9.550053e-01
net6 = 8.991812e-01
net7 = 7.788529e-01
net8 = 1.026608e+00
net9 = 1.037617e+00
net10 = 2.867948e-01
net11 = 1.083418e+00
net12 = 1.083418e+00
net13 = 0.000000e+00
out = 1.083418e+00
pos = 1.187702e+00
q.xq2.qsky130_fd_pr__pnp_05v5_w0p68l0p68#collcx = 2.149179e-03
q.xq3.qsky130_fd_pr__pnp_05v5_w0p68l0p68#collcx = 2.699665e-04
q.xq4.qsky130_fd_pr__pnp_05v5_w0p68l0p68#collcx = 2.699665e-04
q.xq8.qsky130_fd_pr__pnp_05v5_w0p68l0p68#collcx = 2.699665e-04
q.xq10.qsky130_fd_pr__pnp_05v5_w0p68l0p68#collcx = 2.699665e-04
q.xq12.qsky130_fd_pr__pnp_05v5_w0p68l0p68#collcx = 2.699665e-04
q.xq14.qsky130_fd_pr__pnp_05v5_w0p68l0p68#collcx = 2.699665e-04
q.xq16.qsky130_fd_pr__pnp_05v5_w0p68l0p68#collcx = 2.699665e-04
q.xq18.qsky130_fd_pr__pnp_05v5_w0p68l0p68#collcx = 2.699665e-04
vb = 9.011728e-01
vdd = 2.100000e+00
vs#branch = -1.00417e-02
vt#branch = 0.000000e+00
xc1.a = 0.000000e+00
xc1.b1 = 0.000000e+00
xc3.a = 1.083418e+00
xc3.b1 = 1.083418e+00
xr1.xsky130_fd_pr__res_xhigh_po_0p69.ra = 7.863676e-01
xr2.xsky130_fd_pr__res_xhigh_po_0p69.ra = 7.863933e-01
xr3.xsky130_fd_pr__res_xhigh_po_0p69.ra = 5.068547e-03
xr4.xsky130_fd_pr__res_xhigh_po_0p69.ra = 7.217584e-01
xr5.xsky130_fd_pr__res_xhigh_po_0p69.ra = 5.068369e-03
xr6.xsky130_fd_pr__res_xhigh_po_0p69.ra = 7.986097e-03
xr7.xsky130_fd_pr__res_xhigh_po_0p69.ra = 1.083418e+00
xr8.xsky130_fd_pr__res_xhigh_po_0p69.ra = 1.200991e+00
xr9.xsky130_fd_pr__res_xhigh_po_0p69.ra = 1.393455e-02
Doing analysis at TEMP = 27.000000 and TNOM = 27.000000


No. of Data Rows : 91
Note: Starting true gmin stepping
Trying gmin =   1.0000E-03 Note: One successful gmin step
Trying gmin =   1.0000E-04 Note: One successful gmin step
Trying gmin =   1.0000E-05 Note: One successful gmin step
Trying gmin =   1.0000E-06 Note: One successful gmin step
Trying gmin =   1.0000E-07 Note: One successful gmin step
Trying gmin =   1.0000E-08 Warning: Further gmin increment
Trying gmin =   5.6234E-08 Note: One successful gmin step
Trying gmin =   2.3714E-08 Warning: Further gmin increment
Trying gmin =   4.5316E-08 Note: One successful gmin step
Trying gmin =   3.2781E-08 Warning: Further gmin increment
Trying gmin =   4.1792E-08 Note: One successful gmin step
Trying gmin =   3.7013E-08 Warning: Further gmin increment
Trying gmin =   4.0542E-08 Note: One successful gmin step
Trying gmin =   3.8738E-08 Warning: Further gmin increment
Trying gmin =   4.0084E-08 Note: One successful gmin step
Trying gmin =   3.9405E-08 Warning: Further gmin increment
Trying gmin =   3.9913E-08 Note: One successful gmin step
Trying gmin =   3.9658E-08 Note: One successful gmin step
Trying gmin =   3.9279E-08 Warning: Further gmin increment
Trying gmin =   3.9563E-08 Warning: Further gmin increment
Trying gmin =   3.9634E-08 Note: One successful gmin step
Trying gmin =   3.9599E-08 Warning: Further gmin increment
Trying gmin =   3.9625E-08 Note: One successful gmin step
Trying gmin =   3.9612E-08 Warning: Further gmin increment
Trying gmin =   3.9622E-08 Note: One successful gmin step
Trying gmin =   3.9617E-08 Note: One successful gmin step
Trying gmin =   3.9609E-08 Warning: Further gmin increment
Trying gmin =   3.9615E-08 Note: One successful gmin step
Trying gmin =   3.9612E-08 Warning: Further gmin increment
Trying gmin =   3.9614E-08 Note: One successful gmin step
Trying gmin =   3.9614E-08 Warning: Last gmin step failed
Error: -1.63502e+185, 2 out of range for ^
Warning: True gmin stepping failed
Note: Starting dynamic gmin stepping
Trying gmin =   1.0000E-03 Note: One successful gmin step
Trying gmin =   1.0000E-04 Note: One successful gmin step
Trying gmin =   1.0000E-05 Warning: Further gmin increment
Trying gmin =   5.6234E-05 Note: One successful gmin step
Trying gmin =   2.3714E-05 Note: One successful gmin step
Trying gmin =   6.4938E-06 Warning: Further gmin increment
Trying gmin =   1.7154E-05 Note: One successful gmin step
Trying gmin =   1.0554E-05 Warning: Further gmin increment
Trying gmin =   1.5193E-05 Note: One successful gmin step
Trying gmin =   1.2663E-05 Warning: Further gmin increment
Trying gmin =   1.4517E-05 Note: One successful gmin step
Trying gmin =   1.3558E-05 Note: One successful gmin step
Trying gmin =   1.2238E-05 Note: One successful gmin step
Trying gmin =   1.0495E-05 Note: One successful gmin step
Trying gmin =   8.3340E-06 Note: One successful gmin step
Trying gmin =   5.8977E-06 Note: One successful gmin step
Trying gmin =   3.5110E-06 Note: One successful gmin step
Trying gmin =   1.6127E-06 Warning: Further gmin increment
Trying gmin =   2.8904E-06 Note: One successful gmin step
Trying gmin =   2.1590E-06 Note: One successful gmin step
Trying gmin =   1.3938E-06 Warning: Further gmin increment
Trying gmin =   1.9353E-06 Note: One successful gmin step
Trying gmin =   1.6424E-06 Warning: Further gmin increment
Trying gmin =   1.8575E-06 Note: One successful gmin step
Trying gmin =   1.7466E-06 Note: One successful gmin step
Trying gmin =   1.5926E-06 Warning: Further gmin increment
Trying gmin =   1.7068E-06 Note: One successful gmin step
Trying gmin =   1.6487E-06 Note: One successful gmin step
Trying gmin =   1.5653E-06 Note: One successful gmin step
Trying gmin =   1.4480E-06 Note: One successful gmin step
Trying gmin =   1.2883E-06 Note: One successful gmin step
Trying gmin =   1.0812E-06 Note: One successful gmin step
Trying gmin =   8.3128E-07 Note: One successful gmin step
Trying gmin =   5.6041E-07 Note: One successful gmin step
Trying gmin =   3.1020E-07 Note: One successful gmin step
Trying gmin =   1.2774E-07 Note: One successful gmin step
Trying gmin =   3.3758E-08 Note: One successful gmin step
Trying gmin =   4.5862E-09 Note: One successful gmin step
Trying gmin =   4.5862E-10 Note: One successful gmin step
Trying gmin =   4.5862E-11 Note: One successful gmin step
Trying gmin =   4.5862E-12 Note: One successful gmin step
Trying gmin =   1.0000E-12 Note: One successful gmin step
Note: Dynamic gmin stepping completed
 Reference value :  2.80000e+00Note: Starting true gmin stepping
Trying gmin =   1.0000E-03 Note: One successful gmin step
Trying gmin =   1.0000E-04 Note: One successful gmin step
Trying gmin =   1.0000E-05 Note: One successful gmin step
Trying gmin =   1.0000E-06 Note: One successful gmin step
Trying gmin =   1.0000E-07 Note: One successful gmin step
Trying gmin =   1.0000E-08 Warning: Further gmin increment
Trying gmin =   5.6234E-08 Note: One successful gmin step
Trying gmin =   2.3714E-08 Note: One successful gmin step
Trying gmin =   1.0000E-08 Warning: Further gmin increment
Trying gmin =   1.9110E-08 Note: One successful gmin step
Trying gmin =   1.3824E-08 Note: One successful gmin step
Trying gmin =   8.5053E-09 Note: One successful gmin step
Trying gmin =   4.1047E-09 Warning: Further gmin increment
Trying gmin =   7.0890E-09 Note: One successful gmin step
Trying gmin =   5.3943E-09 Warning: Further gmin increment
Trying gmin =   6.6210E-09 Note: One successful gmin step
Trying gmin =   5.9762E-09 Note: One successful gmin step
Trying gmin =   5.1249E-09 Note: One successful gmin step
Trying gmin =   4.0698E-09 Note: One successful gmin step
Trying gmin =   2.8801E-09 Note: One successful gmin step
Trying gmin =   1.7145E-09 Note: One successful gmin step
Trying gmin =   7.8753E-10 Note: One successful gmin step
Trying gmin =   2.4516E-10 Note: One successful gmin step
Trying gmin =   4.2581E-11 Note: One successful gmin step
Trying gmin =   4.2581E-12 Note: One successful gmin step
Trying gmin =   1.0000E-12 Note: One successful gmin step
Note: True gmin stepping completed
 Reference value :  1.26000e+00Error: -7.80774e+172, 2 out of range for ^
Error: -7.80774e+172, 2 out of range for ^
Note: Starting true gmin stepping
Trying gmin =   1.0000E-03 Note: One successful gmin step
Trying gmin =   1.0000E-04 Note: One successful gmin step
Trying gmin =   1.0000E-05 Note: One successful gmin step
Trying gmin =   1.0000E-06 Note: One successful gmin step
Trying gmin =   1.0000E-07 Note: One successful gmin step
Trying gmin =   1.0000E-08 Warning: Further gmin increment
Trying gmin =   5.6234E-08 Note: One successful gmin step
Trying gmin =   2.3714E-08 Note: One successful gmin step
Trying gmin =   6.4938E-09 Warning: Further gmin increment
Trying gmin =   1.7154E-08 Note: One successful gmin step
Trying gmin =   1.0554E-08 Warning: Further gmin increment
Trying gmin =   1.5193E-08 Note: One successful gmin step
Trying gmin =   1.2663E-08 Note: One successful gmin step
Trying gmin =   9.6358E-09 Warning: Further gmin increment
Trying gmin =   1.1827E-08 Note: One successful gmin step
Trying gmin =   1.0675E-08 Note: One successful gmin step
Trying gmin =   9.1546E-09 Note: One successful gmin step
Trying gmin =   7.2699E-09 Note: One successful gmin step
Trying gmin =   5.1447E-09 Warning: Further gmin increment
Trying gmin =   6.6678E-09 Note: One successful gmin step
Trying gmin =   5.8569E-09 Note: One successful gmin step
Trying gmin =   4.8217E-09 Note: One successful gmin step
Trying gmin =   3.6016E-09 Note: One successful gmin step
Trying gmin =   2.3251E-09 Note: One successful gmin step
Trying gmin =   1.2060E-09 Note: One successful gmin step
Trying gmin =   4.5053E-10 Note: One successful gmin step
Trying gmin =   1.0287E-10 Note: One successful gmin step
Trying gmin =   1.1223E-11 Note: One successful gmin step
Trying gmin =   1.1223E-12 Note: One successful gmin step
Trying gmin =   1.0000E-12 Note: One successful gmin step
Note: True gmin stepping completed
 Reference value :  5.60000e-01pm                  =  -8.911228e+01
Doing analysis at TEMP = 27.000000 and TNOM = 27.000000


No. of Data Rows : 91
psrr100             =  -7.766589e+01
psrr100k            =  -2.542499e+01
Doing analysis at TEMP = 27.000000 and TNOM = 27.000000


No. of Data Rows : 86
temp_coeff = 6.545592e+01
Doing analysis at TEMP = 27.000000 and TNOM = 27.000000


No. of Data Rows : 141
vldo_sup_2          =  1.785759e+00
vldo_sup_2_8        =  1.785705e+00
line_reg = 6.750000e-05
Note: No ".plot", ".print", or ".fourier" lines; no simulations run
vin                 =  1.778486e+00
dropout = 1.448600e-02
