 Reference value :  0.00000e+00
No compatibility mode selected!


Circuit: * ldo netlist 

Doing analysis at TEMP = 27.000000 and TNOM = 27.000000


No. of Data Rows : 1
bg_out = 1.192541e+00
inn = 1.222444e+00
inp = 1.222411e+00
l1#branch = 2.775558e-17
ldo_out = 1.793274e+00
m.xm1.msky130_fd_pr__nfet_g5v0d10v5#body = 1.773928e-11
m.xm1.msky130_fd_pr__nfet_g5v0d10v5#dbody = 3.833639e-11
m.xm1.msky130_fd_pr__nfet_g5v0d10v5#sbody = 1.488144e-11
m.xm2.msky130_fd_pr__pfet_g5v0d10v5#body = 2.300000e+00
m.xm2.msky130_fd_pr__pfet_g5v0d10v5#dbody = 2.300000e+00
m.xm2.msky130_fd_pr__pfet_g5v0d10v5#sbody = 2.300000e+00
m.xm3.msky130_fd_pr__pfet_g5v0d10v5#body = 2.300000e+00
m.xm3.msky130_fd_pr__pfet_g5v0d10v5#dbody = 2.300000e+00
m.xm3.msky130_fd_pr__pfet_g5v0d10v5#sbody = 2.300000e+00
m.xm4.msky130_fd_pr__pfet_g5v0d10v5#body = 2.300000e+00
m.xm4.msky130_fd_pr__pfet_g5v0d10v5#dbody = 2.300000e+00
m.xm4.msky130_fd_pr__pfet_g5v0d10v5#sbody = 2.300000e+00
m.xm5.msky130_fd_pr__pfet_g5v0d10v5#body = 2.300000e+00
m.xm5.msky130_fd_pr__pfet_g5v0d10v5#dbody = 2.300000e+00
m.xm5.msky130_fd_pr__pfet_g5v0d10v5#sbody = 2.300000e+00
m.xm6.msky130_fd_pr__nfet_g5v0d10v5#body = 1.236024e-11
m.xm6.msky130_fd_pr__nfet_g5v0d10v5#dbody = 3.090058e-11
m.xm6.msky130_fd_pr__nfet_g5v0d10v5#sbody = 6.180122e-12
m.xm7.msky130_fd_pr__pfet_g5v0d10v5#body = 2.300000e+00
m.xm7.msky130_fd_pr__pfet_g5v0d10v5#dbody = 2.300000e+00
m.xm7.msky130_fd_pr__pfet_g5v0d10v5#sbody = 2.300000e+00
m.xm8.msky130_fd_pr__pfet_g5v0d10v5#body = 2.300000e+00
m.xm8.msky130_fd_pr__pfet_g5v0d10v5#dbody = 2.300000e+00
m.xm8.msky130_fd_pr__pfet_g5v0d10v5#sbody = 2.300000e+00
m.xm9.msky130_fd_pr__nfet_g5v0d10v5#body = 1.840979e-11
m.xm9.msky130_fd_pr__nfet_g5v0d10v5#dbody = 4.092901e-11
m.xm9.msky130_fd_pr__nfet_g5v0d10v5#sbody = 1.430035e-11
m.xm10.msky130_fd_pr__nfet_g5v0d10v5#body = 1.819529e-11
m.xm10.msky130_fd_pr__nfet_g5v0d10v5#dbody = 4.039276e-11
m.xm10.msky130_fd_pr__nfet_g5v0d10v5#sbody = 1.419310e-11
m.xm11.msky130_fd_pr__pfet_g5v0d10v5#body = 2.300000e+00
m.xm11.msky130_fd_pr__pfet_g5v0d10v5#dbody = 2.300000e+00
m.xm11.msky130_fd_pr__pfet_g5v0d10v5#sbody = 2.300000e+00
m.xm12.msky130_fd_pr__pfet_g5v0d10v5#body = 2.300000e+00
m.xm12.msky130_fd_pr__pfet_g5v0d10v5#dbody = 2.300000e+00
m.xm12.msky130_fd_pr__pfet_g5v0d10v5#sbody = 2.300000e+00
m.xm13.msky130_fd_pr__nfet_g5v0d10v5#body = 2.546372e-12
m.xm13.msky130_fd_pr__nfet_g5v0d10v5#dbody = 6.365919e-12
m.xm13.msky130_fd_pr__nfet_g5v0d10v5#sbody = 1.273196e-12
m.xm14.msky130_fd_pr__pfet_g5v0d10v5#body = 2.300000e+00
m.xm14.msky130_fd_pr__pfet_g5v0d10v5#dbody = 2.300000e+00
m.xm14.msky130_fd_pr__pfet_g5v0d10v5#sbody = 2.300000e+00
m.xm15.msky130_fd_pr__nfet_g5v0d10v5#body = 6.127758e-16
m.xm15.msky130_fd_pr__nfet_g5v0d10v5#dbody = 1.531915e-15
m.xm15.msky130_fd_pr__nfet_g5v0d10v5#sbody = 3.064127e-16
m.xm16.msky130_fd_pr__nfet_g5v0d10v5#body = 4.403931e-11
m.xm16.msky130_fd_pr__nfet_g5v0d10v5#dbody = 7.952841e-11
m.xm16.msky130_fd_pr__nfet_g5v0d10v5#sbody = 5.258951e-11
m.xm17.msky130_fd_pr__pfet_g5v0d10v5#body = 2.300000e+00
m.xm17.msky130_fd_pr__pfet_g5v0d10v5#dbody = 2.300000e+00
m.xm17.msky130_fd_pr__pfet_g5v0d10v5#sbody = 2.300000e+00
m.xm18.msky130_fd_pr__nfet_g5v0d10v5#body = 1.653967e-11
m.xm18.msky130_fd_pr__nfet_g5v0d10v5#dbody = 4.134889e-11
m.xm18.msky130_fd_pr__nfet_g5v0d10v5#sbody = 8.269845e-12
m.xm19.msky130_fd_pr__nfet_g5v0d10v5#body = 1.779316e-11
m.xm19.msky130_fd_pr__nfet_g5v0d10v5#dbody = 3.847109e-11
m.xm19.msky130_fd_pr__nfet_g5v0d10v5#sbody = 1.490838e-11
m.xm20.msky130_fd_pr__nfet_g5v0d10v5#body = 1.298613e-11
m.xm20.msky130_fd_pr__nfet_g5v0d10v5#dbody = 3.246531e-11
m.xm20.msky130_fd_pr__nfet_g5v0d10v5#sbody = 6.493076e-12
m.xm22.msky130_fd_pr__nfet_g5v0d10v5#body = 3.008614e-12
m.xm22.msky130_fd_pr__nfet_g5v0d10v5#dbody = 7.521531e-12
m.xm22.msky130_fd_pr__nfet_g5v0d10v5#sbody = 1.504312e-12
m.xm24.msky130_fd_pr__pfet_g5v0d10v5#body = 2.300000e+00
m.xm24.msky130_fd_pr__pfet_g5v0d10v5#dbody = 2.300000e+00
m.xm24.msky130_fd_pr__pfet_g5v0d10v5#sbody = 2.300000e+00
m.xm26.msky130_fd_pr__pfet_g5v0d10v5#body = 2.300000e+00
m.xm26.msky130_fd_pr__pfet_g5v0d10v5#dbody = 2.300000e+00
m.xm26.msky130_fd_pr__pfet_g5v0d10v5#sbody = 2.300000e+00
mir = 1.178320e+00
net1 = 7.251266e-01
net2 = 4.714557e-05
net3 = 7.846748e-01
net4 = 2.401220e-01
net5 = 1.182630e+00
net6 = 9.882515e-01
net7 = 7.846408e-01
net8 = 1.251563e+00
net9 = 1.268723e+00
net10 = 2.035768e-01
net11 = 1.323030e+00
net12 = 1.323030e+00
net13 = 0.000000e+00
out = 1.323030e+00
pos = 1.192706e+00
q.xq2.qsky130_fd_pr__pnp_05v5_w0p68l0p68#collcx = 2.093590e-03
q.xq3.qsky130_fd_pr__pnp_05v5_w0p68l0p68#collcx = 2.636405e-04
q.xq4.qsky130_fd_pr__pnp_05v5_w0p68l0p68#collcx = 2.636405e-04
q.xq8.qsky130_fd_pr__pnp_05v5_w0p68l0p68#collcx = 2.636405e-04
q.xq10.qsky130_fd_pr__pnp_05v5_w0p68l0p68#collcx = 2.636405e-04
q.xq12.qsky130_fd_pr__pnp_05v5_w0p68l0p68#collcx = 2.636405e-04
q.xq14.qsky130_fd_pr__pnp_05v5_w0p68l0p68#collcx = 2.636405e-04
q.xq16.qsky130_fd_pr__pnp_05v5_w0p68l0p68#collcx = 2.636405e-04
q.xq18.qsky130_fd_pr__pnp_05v5_w0p68l0p68#collcx = 2.636405e-04
vb = 1.038757e+00
vdd = 2.300000e+00
vs#branch = -1.00830e-02
vt#branch = 0.000000e+00
xc1.a = 0.000000e+00
xc1.b1 = 0.000000e+00
xc3.a = 1.323030e+00
xc3.b1 = 1.323030e+00
xr1.xsky130_fd_pr__res_xhigh_po_0p69.ra = 7.921878e-01
xr2.xsky130_fd_pr__res_xhigh_po_0p69.ra = 7.922218e-01
xr3.xsky130_fd_pr__res_xhigh_po_0p69.ra = 5.108732e-03
xr4.xsky130_fd_pr__res_xhigh_po_0p69.ra = 7.276636e-01
xr5.xsky130_fd_pr__res_xhigh_po_0p69.ra = 5.108495e-03
xr6.xsky130_fd_pr__res_xhigh_po_0p69.ra = 8.022438e-03
xr7.xsky130_fd_pr__res_xhigh_po_0p69.ra = 1.323030e+00
xr8.xsky130_fd_pr__res_xhigh_po_0p69.ra = 1.206054e+00
xr9.xsky130_fd_pr__res_xhigh_po_0p69.ra = 1.399846e-02
Doing analysis at TEMP = 27.000000 and TNOM = 27.000000


No. of Data Rows : 91
Note: Starting true gmin stepping
Trying gmin =   1.0000E-03 Note: One successful gmin step
Trying gmin =   1.0000E-04 Note: One successful gmin step
Trying gmin =   1.0000E-05 Note: One successful gmin step
Trying gmin =   1.0000E-06 Warning: Further gmin increment
Trying gmin =   5.6234E-06 Note: One successful gmin step
Trying gmin =   2.3714E-06 Note: One successful gmin step
Trying gmin =   6.4938E-07 Warning: Further gmin increment
Trying gmin =   1.7154E-06 Note: One successful gmin step
Trying gmin =   1.0554E-06 Note: One successful gmin step
Trying gmin =   5.0937E-07 Warning: Further gmin increment
Trying gmin =   8.7970E-07 Note: One successful gmin step
Trying gmin =   6.6940E-07 Note: One successful gmin step
Trying gmin =   4.4433E-07 Note: One successful gmin step
Trying gmin =   2.4029E-07 Note: One successful gmin step
Trying gmin =   9.5562E-08 Warning: Further gmin increment
Trying gmin =   1.9082E-07 Note: One successful gmin step
Trying gmin =   1.3504E-07 Warning: Further gmin increment
Trying gmin =   1.7502E-07 Note: One successful gmin step
Trying gmin =   1.5373E-07 Note: One successful gmin step
Trying gmin =   1.2656E-07 Warning: Further gmin increment
Trying gmin =   1.4644E-07 Note: One successful gmin step
Trying gmin =   1.3614E-07 Note: One successful gmin step
Trying gmin =   1.2203E-07 Note: One successful gmin step
Trying gmin =   1.0356E-07 Note: One successful gmin step
Trying gmin =   8.0962E-08 Note: One successful gmin step
Trying gmin =   5.5965E-08 Note: One successful gmin step
Trying gmin =   3.2164E-08 Note: One successful gmin step
Trying gmin =   1.4014E-08 Note: One successful gmin step
Trying gmin =   4.0304E-09 Note: One successful gmin step
Trying gmin =   6.2160E-10 Note: One successful gmin step
Trying gmin =   6.2160E-11 Note: One successful gmin step
Trying gmin =   6.2160E-12 Note: One successful gmin step
Trying gmin =   1.0000E-12 Note: One successful gmin step
Note: True gmin stepping completed
 Reference value :  2.80000e+00Note: Starting true gmin stepping
Trying gmin =   1.0000E-03 Note: One successful gmin step
Trying gmin =   1.0000E-04 Note: One successful gmin step
Trying gmin =   1.0000E-05 Note: One successful gmin step
Trying gmin =   1.0000E-06 Note: One successful gmin step
Trying gmin =   1.0000E-07 Note: One successful gmin step
Trying gmin =   1.0000E-08 Warning: Further gmin increment
Trying gmin =   5.6234E-08 Note: One successful gmin step
Trying gmin =   2.3714E-08 Note: One successful gmin step
Trying gmin =   6.4938E-09 Note: One successful gmin step
Trying gmin =   9.3057E-10 Note: One successful gmin step
Trying gmin =   9.3057E-11 Warning: Further gmin increment
Trying gmin =   5.2330E-10 Note: One successful gmin step
Trying gmin =   2.2067E-10 Note: One successful gmin step
Trying gmin =   6.0430E-11 Note: One successful gmin step
Trying gmin =   8.6596E-12 Warning: Further gmin increment
Trying gmin =   3.7180E-11 Note: One successful gmin step
Trying gmin =   1.7943E-11 Note: One successful gmin step
Trying gmin =   8.6596E-12 Note: One successful gmin step
Trying gmin =   2.9033E-12 Note: One successful gmin step
Trying gmin =   1.0000E-12 Note: One successful gmin step
Note: True gmin stepping completed
 Reference value :  1.18000e+00Note: Starting true gmin stepping
Trying gmin =   1.0000E-03 Note: One successful gmin step
Trying gmin =   1.0000E-04 Note: One successful gmin step
Trying gmin =   1.0000E-05 Note: One successful gmin step
Trying gmin =   1.0000E-06 Note: One successful gmin step
Trying gmin =   1.0000E-07 Note: One successful gmin step
Trying gmin =   1.0000E-08 Warning: Further gmin increment
Trying gmin =   5.6234E-08 Note: One successful gmin step
Trying gmin =   2.3714E-08 Note: One successful gmin step
Trying gmin =   6.4938E-09 Note: One successful gmin step
Trying gmin =   9.3057E-10 Note: One successful gmin step
Trying gmin =   9.3057E-11 Warning: Further gmin increment
Trying gmin =   5.2330E-10 Note: One successful gmin step
Trying gmin =   2.2067E-10 Note: One successful gmin step
Trying gmin =   6.0430E-11 Warning: Further gmin increment
Trying gmin =   1.5963E-10 Note: One successful gmin step
Trying gmin =   9.8217E-11 Note: One successful gmin step
Trying gmin =   4.7400E-11 Note: One successful gmin step
Trying gmin =   1.5892E-11 Warning: Further gmin increment
Trying gmin =   3.6069E-11 Note: One successful gmin step
Trying gmin =   2.3941E-11 Note: One successful gmin step
Trying gmin =   1.2947E-11 Warning: Further gmin increment
Trying gmin =   2.0531E-11 Note: One successful gmin step
Trying gmin =   1.6304E-11 Note: One successful gmin step
Trying gmin =   1.1538E-11 Note: One successful gmin step
Trying gmin =   6.8687E-12 Note: One successful gmin step
Trying gmin =   3.1549E-12 Note: One successful gmin step
Trying gmin =   1.0000E-12 Note: One successful gmin step
Note: True gmin stepping completed
 Reference value :  1.16000e+00pm                  =  -1.030901e+02
Doing analysis at TEMP = 27.000000 and TNOM = 27.000000


No. of Data Rows : 91
psrr100             =  -8.172805e+01
psrr100k            =  -2.509832e+01
Doing analysis at TEMP = 27.000000 and TNOM = 27.000000


No. of Data Rows : 86
temp_coeff = 9.584949e+01
Doing analysis at TEMP = 27.000000 and TNOM = 27.000000


No. of Data Rows : 141
vldo_sup_2          =  1.793298e+00
vldo_sup_2_8        =  1.793270e+00
line_reg = 3.500000e-05
Note: No ".plot", ".print", or ".fourier" lines; no simulations run
vin                 =  1.778019e+00
dropout = 1.401900e-02
