 Reference value :  0.00000e+00
No compatibility mode selected!


Circuit: * ldo netlist 

Doing analysis at TEMP = 27.000000 and TNOM = 27.000000


No. of Data Rows : 1
bg_out = 1.187553e+00
inn = 1.214923e+00
inp = 1.214920e+00
l1#branch = 0.000000e+00
ldo_out = 1.785651e+00
m.xm1.msky130_fd_pr__nfet_g5v0d10v5#body = 2.095815e-11
m.xm1.msky130_fd_pr__nfet_g5v0d10v5#dbody = 4.435713e-11
m.xm1.msky130_fd_pr__nfet_g5v0d10v5#sbody = 1.851730e-11
m.xm2.msky130_fd_pr__pfet_g5v0d10v5#body = 2.500000e+00
m.xm2.msky130_fd_pr__pfet_g5v0d10v5#dbody = 2.500000e+00
m.xm2.msky130_fd_pr__pfet_g5v0d10v5#sbody = 2.500000e+00
m.xm3.msky130_fd_pr__pfet_g5v0d10v5#body = 2.500000e+00
m.xm3.msky130_fd_pr__pfet_g5v0d10v5#dbody = 2.500000e+00
m.xm3.msky130_fd_pr__pfet_g5v0d10v5#sbody = 2.500000e+00
m.xm4.msky130_fd_pr__pfet_g5v0d10v5#body = 2.500000e+00
m.xm4.msky130_fd_pr__pfet_g5v0d10v5#dbody = 2.500000e+00
m.xm4.msky130_fd_pr__pfet_g5v0d10v5#sbody = 2.500000e+00
m.xm5.msky130_fd_pr__pfet_g5v0d10v5#body = 2.500000e+00
m.xm5.msky130_fd_pr__pfet_g5v0d10v5#dbody = 2.500000e+00
m.xm5.msky130_fd_pr__pfet_g5v0d10v5#sbody = 2.500000e+00
m.xm6.msky130_fd_pr__nfet_g5v0d10v5#body = 1.124493e-11
m.xm6.msky130_fd_pr__nfet_g5v0d10v5#dbody = 2.811232e-11
m.xm6.msky130_fd_pr__nfet_g5v0d10v5#sbody = 5.622470e-12
m.xm7.msky130_fd_pr__pfet_g5v0d10v5#body = 2.500000e+00
m.xm7.msky130_fd_pr__pfet_g5v0d10v5#dbody = 2.500000e+00
m.xm7.msky130_fd_pr__pfet_g5v0d10v5#sbody = 2.500000e+00
m.xm8.msky130_fd_pr__pfet_g5v0d10v5#body = 2.500000e+00
m.xm8.msky130_fd_pr__pfet_g5v0d10v5#dbody = 2.500000e+00
m.xm8.msky130_fd_pr__pfet_g5v0d10v5#sbody = 2.500000e+00
m.xm9.msky130_fd_pr__nfet_g5v0d10v5#body = 2.158339e-11
m.xm9.msky130_fd_pr__nfet_g5v0d10v5#dbody = 4.674005e-11
m.xm9.msky130_fd_pr__nfet_g5v0d10v5#sbody = 1.801011e-11
m.xm10.msky130_fd_pr__nfet_g5v0d10v5#body = 2.146785e-11
m.xm10.msky130_fd_pr__nfet_g5v0d10v5#dbody = 4.645121e-11
m.xm10.msky130_fd_pr__nfet_g5v0d10v5#sbody = 1.795234e-11
m.xm11.msky130_fd_pr__pfet_g5v0d10v5#body = 2.500000e+00
m.xm11.msky130_fd_pr__pfet_g5v0d10v5#dbody = 2.500000e+00
m.xm11.msky130_fd_pr__pfet_g5v0d10v5#sbody = 2.500000e+00
m.xm12.msky130_fd_pr__pfet_g5v0d10v5#body = 2.500000e+00
m.xm12.msky130_fd_pr__pfet_g5v0d10v5#dbody = 2.500000e+00
m.xm12.msky130_fd_pr__pfet_g5v0d10v5#sbody = 2.500000e+00
m.xm13.msky130_fd_pr__nfet_g5v0d10v5#body = 3.607851e-12
m.xm13.msky130_fd_pr__nfet_g5v0d10v5#dbody = 9.019617e-12
m.xm13.msky130_fd_pr__nfet_g5v0d10v5#sbody = 1.803936e-12
m.xm14.msky130_fd_pr__pfet_g5v0d10v5#body = 2.500000e+00
m.xm14.msky130_fd_pr__pfet_g5v0d10v5#dbody = 2.500000e+00
m.xm14.msky130_fd_pr__pfet_g5v0d10v5#sbody = 2.500000e+00
m.xm15.msky130_fd_pr__nfet_g5v0d10v5#body = 7.518826e-16
m.xm15.msky130_fd_pr__nfet_g5v0d10v5#dbody = 1.879641e-15
m.xm15.msky130_fd_pr__nfet_g5v0d10v5#sbody = 3.760073e-16
m.xm16.msky130_fd_pr__nfet_g5v0d10v5#body = 4.644519e-11
m.xm16.msky130_fd_pr__nfet_g5v0d10v5#dbody = 8.573124e-11
m.xm16.msky130_fd_pr__nfet_g5v0d10v5#sbody = 5.360432e-11
m.xm17.msky130_fd_pr__pfet_g5v0d10v5#body = 2.500000e+00
m.xm17.msky130_fd_pr__pfet_g5v0d10v5#dbody = 2.500000e+00
m.xm17.msky130_fd_pr__pfet_g5v0d10v5#sbody = 2.500000e+00
m.xm18.msky130_fd_pr__nfet_g5v0d10v5#body = 1.424654e-11
m.xm18.msky130_fd_pr__nfet_g5v0d10v5#dbody = 3.561632e-11
m.xm18.msky130_fd_pr__nfet_g5v0d10v5#sbody = 7.123279e-12
m.xm19.msky130_fd_pr__nfet_g5v0d10v5#body = 2.096311e-11
m.xm19.msky130_fd_pr__nfet_g5v0d10v5#dbody = 4.436954e-11
m.xm19.msky130_fd_pr__nfet_g5v0d10v5#sbody = 1.851978e-11
m.xm20.msky130_fd_pr__nfet_g5v0d10v5#body = 1.126437e-11
m.xm20.msky130_fd_pr__nfet_g5v0d10v5#dbody = 2.816090e-11
m.xm20.msky130_fd_pr__nfet_g5v0d10v5#sbody = 5.632195e-12
m.xm22.msky130_fd_pr__nfet_g5v0d10v5#body = 4.021828e-12
m.xm22.msky130_fd_pr__nfet_g5v0d10v5#dbody = 1.005456e-11
m.xm22.msky130_fd_pr__nfet_g5v0d10v5#sbody = 2.010918e-12
m.xm24.msky130_fd_pr__pfet_g5v0d10v5#body = 2.500000e+00
m.xm24.msky130_fd_pr__pfet_g5v0d10v5#dbody = 2.500000e+00
m.xm24.msky130_fd_pr__pfet_g5v0d10v5#sbody = 2.500000e+00
m.xm26.msky130_fd_pr__pfet_g5v0d10v5#body = 2.500000e+00
m.xm26.msky130_fd_pr__pfet_g5v0d10v5#dbody = 2.500000e+00
m.xm26.msky130_fd_pr__pfet_g5v0d10v5#sbody = 2.500000e+00
mir = 1.354777e+00
net1 = 7.192281e-01
net2 = 5.785683e-05
net3 = 7.788940e-01
net4 = 3.211832e-01
net5 = 1.355173e+00
net6 = 8.990313e-01
net7 = 7.788909e-01
net8 = 1.428454e+00
net9 = 1.437697e+00
net10 = 2.884992e-01
net11 = 1.139594e+00
net12 = 1.139594e+00
net13 = 0.000000e+00
out = 1.139594e+00
pos = 1.187637e+00
q.xq2.qsky130_fd_pr__pnp_05v5_w0p68l0p68#collcx = 2.150240e-03
q.xq3.qsky130_fd_pr__pnp_05v5_w0p68l0p68#collcx = 2.700846e-04
q.xq4.qsky130_fd_pr__pnp_05v5_w0p68l0p68#collcx = 2.700846e-04
q.xq8.qsky130_fd_pr__pnp_05v5_w0p68l0p68#collcx = 2.700846e-04
q.xq10.qsky130_fd_pr__pnp_05v5_w0p68l0p68#collcx = 2.700846e-04
q.xq12.qsky130_fd_pr__pnp_05v5_w0p68l0p68#collcx = 2.700846e-04
q.xq14.qsky130_fd_pr__pnp_05v5_w0p68l0p68#collcx = 2.700846e-04
q.xq16.qsky130_fd_pr__pnp_05v5_w0p68l0p68#collcx = 2.700846e-04
q.xq18.qsky130_fd_pr__pnp_05v5_w0p68l0p68#collcx = 2.700846e-04
vb = 9.010203e-01
vdd = 2.500000e+00
vs#branch = -9.93244e-02
vt#branch = 0.000000e+00
xc1.a = 0.000000e+00
xc1.b1 = 0.000000e+00
xc3.a = 1.139594e+00
xc3.b1 = 1.139594e+00
xr1.xsky130_fd_pr__res_xhigh_po_0p69.ra = 7.864071e-01
xr2.xsky130_fd_pr__res_xhigh_po_0p69.ra = 7.864101e-01
xr3.xsky130_fd_pr__res_xhigh_po_0p69.ra = 5.068654e-03
xr4.xsky130_fd_pr__res_xhigh_po_0p69.ra = 7.217714e-01
xr5.xsky130_fd_pr__res_xhigh_po_0p69.ra = 5.068632e-03
xr6.xsky130_fd_pr__res_xhigh_po_0p69.ra = 7.985908e-03
xr7.xsky130_fd_pr__res_xhigh_po_0p69.ra = 1.139594e+00
xr8.xsky130_fd_pr__res_xhigh_po_0p69.ra = 1.200925e+00
xr9.xsky130_fd_pr__res_xhigh_po_0p69.ra = 1.393371e-02
Doing analysis at TEMP = 27.000000 and TNOM = 27.000000


No. of Data Rows : 91
Note: Starting true gmin stepping
Trying gmin =   1.0000E-03 Note: One successful gmin step
Trying gmin =   1.0000E-04 Note: One successful gmin step
Trying gmin =   1.0000E-05 Note: One successful gmin step
Trying gmin =   1.0000E-06 Note: One successful gmin step
Trying gmin =   1.0000E-07 Note: One successful gmin step
Trying gmin =   1.0000E-08 Warning: Further gmin increment
Trying gmin =   5.6234E-08 Note: One successful gmin step
Trying gmin =   2.3714E-08 Note: One successful gmin step
Trying gmin =   1.5399E-08 Note: One successful gmin step
Trying gmin =   8.0584E-09 Note: One successful gmin step
Trying gmin =   3.0505E-09 Note: One successful gmin step
Trying gmin =   7.1050E-10 Note: One successful gmin step
Trying gmin =   7.9863E-11 Note: One successful gmin step
Trying gmin =   7.9863E-12 Note: One successful gmin step
Trying gmin =   1.0000E-12 Note: One successful gmin step
Note: True gmin stepping completed
 Reference value :  2.52000e+00pm                  =  1.295119e+01
Doing analysis at TEMP = 27.000000 and TNOM = 27.000000


No. of Data Rows : 91
psrr100             =  -8.720864e+01
psrr100k            =  -2.721313e+01
Doing analysis at TEMP = 27.000000 and TNOM = 27.000000


No. of Data Rows : 86
temp_coeff = 8.215127e+01
Doing analysis at TEMP = 27.000000 and TNOM = 27.000000


No. of Data Rows : 141
vldo_sup_2          =  1.861865e+00
vldo_sup_2_8        =  2.672441e+00
line_reg = 1.013220e+00
Note: No ".plot", ".print", or ".fourier" lines; no simulations run
vin                 =  1.905863e+00
dropout = 1.418630e-01
