 Reference value :  0.00000e+00
No compatibility mode selected!


Circuit: * ldo netlist 

Doing analysis at TEMP = 27.000000 and TNOM = 27.000000


No. of Data Rows : 1
bg_out = 1.194082e+00
inn = 1.224844e+00
inp = 1.224809e+00
l1#branch = 0.000000e+00
ldo_out = 1.796207e+00
m.xm1.msky130_fd_pr__nfet_g5v0d10v5#body = 1.767472e-11
m.xm1.msky130_fd_pr__nfet_g5v0d10v5#dbody = 3.817449e-11
m.xm1.msky130_fd_pr__nfet_g5v0d10v5#sbody = 1.484965e-11
m.xm2.msky130_fd_pr__pfet_g5v0d10v5#body = 2.300000e+00
m.xm2.msky130_fd_pr__pfet_g5v0d10v5#dbody = 2.300000e+00
m.xm2.msky130_fd_pr__pfet_g5v0d10v5#sbody = 2.300000e+00
m.xm3.msky130_fd_pr__pfet_g5v0d10v5#body = 2.300000e+00
m.xm3.msky130_fd_pr__pfet_g5v0d10v5#dbody = 2.300000e+00
m.xm3.msky130_fd_pr__pfet_g5v0d10v5#sbody = 2.300000e+00
m.xm4.msky130_fd_pr__pfet_g5v0d10v5#body = 2.300000e+00
m.xm4.msky130_fd_pr__pfet_g5v0d10v5#dbody = 2.300000e+00
m.xm4.msky130_fd_pr__pfet_g5v0d10v5#sbody = 2.300000e+00
m.xm5.msky130_fd_pr__pfet_g5v0d10v5#body = 2.300000e+00
m.xm5.msky130_fd_pr__pfet_g5v0d10v5#dbody = 2.300000e+00
m.xm5.msky130_fd_pr__pfet_g5v0d10v5#sbody = 2.300000e+00
m.xm6.msky130_fd_pr__nfet_g5v0d10v5#body = 1.240933e-11
m.xm6.msky130_fd_pr__nfet_g5v0d10v5#dbody = 3.102332e-11
m.xm6.msky130_fd_pr__nfet_g5v0d10v5#sbody = 6.204670e-12
m.xm7.msky130_fd_pr__pfet_g5v0d10v5#body = 2.300000e+00
m.xm7.msky130_fd_pr__pfet_g5v0d10v5#dbody = 2.300000e+00
m.xm7.msky130_fd_pr__pfet_g5v0d10v5#sbody = 2.300000e+00
m.xm8.msky130_fd_pr__pfet_g5v0d10v5#body = 2.300000e+00
m.xm8.msky130_fd_pr__pfet_g5v0d10v5#dbody = 2.300000e+00
m.xm8.msky130_fd_pr__pfet_g5v0d10v5#sbody = 2.300000e+00
m.xm9.msky130_fd_pr__nfet_g5v0d10v5#body = 1.836048e-11
m.xm9.msky130_fd_pr__nfet_g5v0d10v5#dbody = 4.082094e-11
m.xm9.msky130_fd_pr__nfet_g5v0d10v5#sbody = 1.426050e-11
m.xm10.msky130_fd_pr__nfet_g5v0d10v5#body = 1.814038e-11
m.xm10.msky130_fd_pr__nfet_g5v0d10v5#dbody = 4.027068e-11
m.xm10.msky130_fd_pr__nfet_g5v0d10v5#sbody = 1.415045e-11
m.xm11.msky130_fd_pr__pfet_g5v0d10v5#body = 2.300000e+00
m.xm11.msky130_fd_pr__pfet_g5v0d10v5#dbody = 2.300000e+00
m.xm11.msky130_fd_pr__pfet_g5v0d10v5#sbody = 2.300000e+00
m.xm12.msky130_fd_pr__pfet_g5v0d10v5#body = 2.300000e+00
m.xm12.msky130_fd_pr__pfet_g5v0d10v5#dbody = 2.300000e+00
m.xm12.msky130_fd_pr__pfet_g5v0d10v5#sbody = 2.300000e+00
m.xm13.msky130_fd_pr__nfet_g5v0d10v5#body = 2.538775e-12
m.xm13.msky130_fd_pr__nfet_g5v0d10v5#dbody = 6.346927e-12
m.xm13.msky130_fd_pr__nfet_g5v0d10v5#sbody = 1.269397e-12
m.xm14.msky130_fd_pr__pfet_g5v0d10v5#body = 2.300000e+00
m.xm14.msky130_fd_pr__pfet_g5v0d10v5#dbody = 2.300000e+00
m.xm14.msky130_fd_pr__pfet_g5v0d10v5#sbody = 2.300000e+00
m.xm15.msky130_fd_pr__nfet_g5v0d10v5#body = 6.024441e-16
m.xm15.msky130_fd_pr__nfet_g5v0d10v5#dbody = 1.506086e-15
m.xm15.msky130_fd_pr__nfet_g5v0d10v5#sbody = 3.012466e-16
m.xm16.msky130_fd_pr__nfet_g5v0d10v5#body = 4.406930e-11
m.xm16.msky130_fd_pr__nfet_g5v0d10v5#dbody = 7.954340e-11
m.xm16.msky130_fd_pr__nfet_g5v0d10v5#sbody = 5.266449e-11
m.xm17.msky130_fd_pr__pfet_g5v0d10v5#body = 2.300000e+00
m.xm17.msky130_fd_pr__pfet_g5v0d10v5#dbody = 2.300000e+00
m.xm17.msky130_fd_pr__pfet_g5v0d10v5#sbody = 2.300000e+00
m.xm18.msky130_fd_pr__nfet_g5v0d10v5#body = 1.653624e-11
m.xm18.msky130_fd_pr__nfet_g5v0d10v5#dbody = 4.134032e-11
m.xm18.msky130_fd_pr__nfet_g5v0d10v5#sbody = 8.268130e-12
m.xm19.msky130_fd_pr__nfet_g5v0d10v5#body = 1.773164e-11
m.xm19.msky130_fd_pr__nfet_g5v0d10v5#dbody = 3.831680e-11
m.xm19.msky130_fd_pr__nfet_g5v0d10v5#sbody = 1.487811e-11
m.xm20.msky130_fd_pr__nfet_g5v0d10v5#body = 1.303912e-11
m.xm20.msky130_fd_pr__nfet_g5v0d10v5#dbody = 3.259777e-11
m.xm20.msky130_fd_pr__nfet_g5v0d10v5#sbody = 6.519570e-12
m.xm22.msky130_fd_pr__nfet_g5v0d10v5#body = 3.008860e-12
m.xm22.msky130_fd_pr__nfet_g5v0d10v5#dbody = 7.522145e-12
m.xm22.msky130_fd_pr__nfet_g5v0d10v5#sbody = 1.504435e-12
m.xm24.msky130_fd_pr__pfet_g5v0d10v5#body = 2.300000e+00
m.xm24.msky130_fd_pr__pfet_g5v0d10v5#dbody = 2.300000e+00
m.xm24.msky130_fd_pr__pfet_g5v0d10v5#sbody = 2.300000e+00
m.xm26.msky130_fd_pr__pfet_g5v0d10v5#body = 2.300000e+00
m.xm26.msky130_fd_pr__pfet_g5v0d10v5#dbody = 2.300000e+00
m.xm26.msky130_fd_pr__pfet_g5v0d10v5#sbody = 2.300000e+00
mir = 1.173135e+00
net1 = 7.262647e-01
net2 = 4.635065e-05
net3 = 7.859644e-01
net4 = 2.401417e-01
net5 = 1.177689e+00
net6 = 9.921791e-01
net7 = 7.859284e-01
net8 = 1.247778e+00
net9 = 1.265386e+00
net10 = 2.029691e-01
net11 = 1.322756e+00
net12 = 1.322756e+00
net13 = 0.000000e+00
out = 1.322756e+00
pos = 1.194252e+00
q.xq2.qsky130_fd_pr__pnp_05v5_w0p68l0p68#collcx = 2.181550e-03
q.xq3.qsky130_fd_pr__pnp_05v5_w0p68l0p68#collcx = 2.748211e-04
q.xq4.qsky130_fd_pr__pnp_05v5_w0p68l0p68#collcx = 2.748211e-04
q.xq8.qsky130_fd_pr__pnp_05v5_w0p68l0p68#collcx = 2.748211e-04
q.xq10.qsky130_fd_pr__pnp_05v5_w0p68l0p68#collcx = 2.748211e-04
q.xq12.qsky130_fd_pr__pnp_05v5_w0p68l0p68#collcx = 2.748211e-04
q.xq14.qsky130_fd_pr__pnp_05v5_w0p68l0p68#collcx = 2.748211e-04
q.xq16.qsky130_fd_pr__pnp_05v5_w0p68l0p68#collcx = 2.748211e-04
q.xq18.qsky130_fd_pr__pnp_05v5_w0p68l0p68#collcx = 2.748211e-04
vb = 1.042996e+00
vdd = 2.300000e+00
vs#branch = -1.01044e-02
vt#branch = 0.000000e+00
xc1.a = 0.000000e+00
xc1.b1 = 0.000000e+00
xc3.a = 1.322756e+00
xc3.b1 = 1.322756e+00
xr1.xsky130_fd_pr__res_xhigh_po_0p69.ra = 7.912537e-01
xr2.xsky130_fd_pr__res_xhigh_po_0p69.ra = 7.912898e-01
xr3.xsky130_fd_pr__res_xhigh_po_0p69.ra = 3.606087e-03
xr4.xsky130_fd_pr__res_xhigh_po_0p69.ra = 7.280537e-01
xr5.xsky130_fd_pr__res_xhigh_po_0p69.ra = 3.605910e-03
xr6.xsky130_fd_pr__res_xhigh_po_0p69.ra = 5.661199e-03
xr7.xsky130_fd_pr__res_xhigh_po_0p69.ra = 1.322756e+00
xr8.xsky130_fd_pr__res_xhigh_po_0p69.ra = 1.203667e+00
xr9.xsky130_fd_pr__res_xhigh_po_0p69.ra = 9.873526e-03
Doing analysis at TEMP = 27.000000 and TNOM = 27.000000


No. of Data Rows : 91
Error: -1.49737e+173, 2 out of range for ^
Error: -1.49737e+173, 2 out of range for ^
Note: Starting true gmin stepping
Trying gmin =   1.0000E-03 Note: One successful gmin step
Trying gmin =   1.0000E-04 Note: One successful gmin step
Trying gmin =   1.0000E-05 Note: One successful gmin step
Trying gmin =   1.0000E-06 Warning: Further gmin increment
Trying gmin =   5.6234E-06 Note: One successful gmin step
Trying gmin =   2.3714E-06 Warning: Further gmin increment
Trying gmin =   4.5316E-06 Note: One successful gmin step
Trying gmin =   3.2781E-06 Note: One successful gmin step
Trying gmin =   2.0169E-06 Warning: Further gmin increment
Trying gmin =   2.9033E-06 Note: One successful gmin step
Trying gmin =   2.4199E-06 Warning: Further gmin increment
Trying gmin =   2.7741E-06 Note: One successful gmin step
Trying gmin =   2.5909E-06 Note: One successful gmin step
Trying gmin =   2.3386E-06 Note: One successful gmin step
Trying gmin =   2.0055E-06 Note: One successful gmin step
Trying gmin =   1.5926E-06 Note: One successful gmin step
Trying gmin =   1.1270E-06 Note: One successful gmin step
Trying gmin =   6.7093E-07 Note: One successful gmin step
Trying gmin =   3.0818E-07 Note: One successful gmin step
Trying gmin =   9.5935E-08 Warning: Further gmin increment
Trying gmin =   2.3019E-07 Note: One successful gmin step
Trying gmin =   1.4861E-07 Note: One successful gmin step
Trying gmin =   1.1940E-07 Note: One successful gmin step
Trying gmin =   8.5993E-08 Note: One successful gmin step
Trying gmin =   5.2559E-08 Note: One successful gmin step
Trying gmin =   2.5114E-08 Note: One successful gmin step
Trying gmin =   8.2954E-09 Note: One successful gmin step
Trying gmin =   1.5748E-09 Note: One successful gmin step
Trying gmin =   1.5748E-10 Note: One successful gmin step
Trying gmin =   1.5748E-11 Note: One successful gmin step
Trying gmin =   1.5748E-12 Note: One successful gmin step
Trying gmin =   1.0000E-12 Note: One successful gmin step
Note: True gmin stepping completed
 Reference value :  2.80000e+00Note: Starting true gmin stepping
Trying gmin =   1.0000E-03 Note: One successful gmin step
Trying gmin =   1.0000E-04 Note: One successful gmin step
Trying gmin =   1.0000E-05 Note: One successful gmin step
Trying gmin =   1.0000E-06 Note: One successful gmin step
Trying gmin =   1.0000E-07 Note: One successful gmin step
Trying gmin =   1.0000E-08 Warning: Further gmin increment
Trying gmin =   5.6234E-08 Note: One successful gmin step
Trying gmin =   2.3714E-08 Note: One successful gmin step
Trying gmin =   6.4938E-09 Note: One successful gmin step
Trying gmin =   9.3057E-10 Note: One successful gmin step
Trying gmin =   9.3057E-11 Warning: Further gmin increment
Trying gmin =   5.2330E-10 Note: One successful gmin step
Trying gmin =   2.2067E-10 Note: One successful gmin step
Trying gmin =   6.0430E-11 Note: One successful gmin step
Trying gmin =   8.6596E-12 Warning: Further gmin increment
Trying gmin =   3.7180E-11 Note: One successful gmin step
Trying gmin =   1.7943E-11 Warning: Further gmin increment
Trying gmin =   3.0989E-11 Note: One successful gmin step
Trying gmin =   2.3581E-11 Note: One successful gmin step
Trying gmin =   1.5652E-11 Warning: Further gmin increment
Trying gmin =   2.1285E-11 Note: One successful gmin step
Trying gmin =   1.9212E-11 Note: One successful gmin step
Trying gmin =   1.6475E-11 Note: One successful gmin step
Trying gmin =   1.3083E-11 Note: One successful gmin step
Trying gmin =   9.2586E-12 Note: One successful gmin step
Trying gmin =   5.5118E-12 Note: One successful gmin step
Trying gmin =   2.5317E-12 Note: One successful gmin step
Trying gmin =   1.0000E-12 Note: One successful gmin step
Note: True gmin stepping completed
 Reference value :  1.18000e+00Note: Starting true gmin stepping
Trying gmin =   1.0000E-03 Note: One successful gmin step
Trying gmin =   1.0000E-04 Note: One successful gmin step
Trying gmin =   1.0000E-05 Note: One successful gmin step
Trying gmin =   1.0000E-06 Note: One successful gmin step
Trying gmin =   1.0000E-07 Note: One successful gmin step
Trying gmin =   1.0000E-08 Note: One successful gmin step
Trying gmin =   1.0000E-09 Note: One successful gmin step
Trying gmin =   1.0000E-10 Warning: Further gmin increment
Trying gmin =   5.6234E-10 Note: One successful gmin step
Trying gmin =   2.3714E-10 Note: One successful gmin step
Trying gmin =   6.4938E-11 Warning: Further gmin increment
Trying gmin =   1.7154E-10 Note: One successful gmin step
Trying gmin =   1.0554E-10 Note: One successful gmin step
Trying gmin =   5.0937E-11 Note: One successful gmin step
Trying gmin =   1.7077E-11 Warning: Further gmin increment
Trying gmin =   3.8760E-11 Note: One successful gmin step
Trying gmin =   2.5728E-11 Note: One successful gmin step
Trying gmin =   1.3913E-11 Warning: Further gmin increment
Trying gmin =   2.2063E-11 Note: One successful gmin step
Trying gmin =   1.7520E-11 Note: One successful gmin step
Trying gmin =   1.2399E-11 Warning: Further gmin increment
Trying gmin =   1.6070E-11 Warning: Further gmin increment
Trying gmin =   1.7146E-11 Warning: Further gmin increment
Trying gmin =   1.7426E-11 Warning: Further gmin increment
Trying gmin =   1.7497E-11 Note: One successful gmin step
Trying gmin =   1.7461E-11 Note: One successful gmin step
Trying gmin =   1.7426E-11 Note: One successful gmin step
Trying gmin =   1.7373E-11 Note: One successful gmin step
Trying gmin =   1.7294E-11 Note: One successful gmin step
Trying gmin =   1.7176E-11 Note: One successful gmin step
Trying gmin =   1.7001E-11 Note: One successful gmin step
Trying gmin =   1.6741E-11 Note: One successful gmin step
Trying gmin =   1.6360E-11 Note: One successful gmin step
Trying gmin =   1.5803E-11 Note: One successful gmin step
Trying gmin =   1.5003E-11 Note: One successful gmin step
Trying gmin =   1.3879E-11 Note: One successful gmin step
Trying gmin =   1.2349E-11 Note: One successful gmin step
Trying gmin =   1.0364E-11 Note: One successful gmin step
Trying gmin =   7.9680E-12 Note: One successful gmin step
Trying gmin =   5.3716E-12 Note: One successful gmin step
Trying gmin =   2.9733E-12 Note: One successful gmin step
Trying gmin =   1.2244E-12 Note: One successful gmin step
Trying gmin =   1.0000E-12 Note: One successful gmin step
Note: True gmin stepping completed
 Reference value :  1.16000e+00pm                  =  -1.026579e+02
Doing analysis at TEMP = 27.000000 and TNOM = 27.000000


No. of Data Rows : 91
psrr100             =  -8.135225e+01
psrr100k            =  -2.637579e+01
Doing analysis at TEMP = 27.000000 and TNOM = 27.000000


No. of Data Rows : 86
temp_coeff = 1.290900e+02
Doing analysis at TEMP = 27.000000 and TNOM = 27.000000


No. of Data Rows : 141
vldo_sup_2          =  1.796235e+00
vldo_sup_2_8        =  1.796198e+00
line_reg = 4.625000e-05
Note: No ".plot", ".print", or ".fourier" lines; no simulations run
vin                 =  1.778020e+00
dropout = 1.402000e-02
