 Reference value :  0.00000e+00
No compatibility mode selected!


Circuit: * ldo netlist 

Doing analysis at TEMP = 27.000000 and TNOM = 27.000000


No. of Data Rows : 1
bg_out = 1.097239e+00
inn = 1.141765e+00
inp = 1.141694e+00
l1#branch = -5.55112e-17
ldo_out = 1.803714e+00
m.xm1.msky130_fd_pr__nfet_g5v0d10v5#body = 1.688425e-11
m.xm1.msky130_fd_pr__nfet_g5v0d10v5#dbody = 3.769186e-11
m.xm1.msky130_fd_pr__nfet_g5v0d10v5#sbody = 1.296090e-11
m.xm2.msky130_fd_pr__pfet_g5v0d10v5#body = 2.300000e+00
m.xm2.msky130_fd_pr__pfet_g5v0d10v5#dbody = 2.300000e+00
m.xm2.msky130_fd_pr__pfet_g5v0d10v5#sbody = 2.300000e+00
m.xm3.msky130_fd_pr__pfet_g5v0d10v5#body = 2.300000e+00
m.xm3.msky130_fd_pr__pfet_g5v0d10v5#dbody = 2.300000e+00
m.xm3.msky130_fd_pr__pfet_g5v0d10v5#sbody = 2.300000e+00
m.xm4.msky130_fd_pr__pfet_g5v0d10v5#body = 2.300000e+00
m.xm4.msky130_fd_pr__pfet_g5v0d10v5#dbody = 2.300000e+00
m.xm4.msky130_fd_pr__pfet_g5v0d10v5#sbody = 2.300000e+00
m.xm5.msky130_fd_pr__pfet_g5v0d10v5#body = 2.300000e+00
m.xm5.msky130_fd_pr__pfet_g5v0d10v5#dbody = 2.300000e+00
m.xm5.msky130_fd_pr__pfet_g5v0d10v5#sbody = 2.300000e+00
m.xm6.msky130_fd_pr__nfet_g5v0d10v5#body = 1.244236e-11
m.xm6.msky130_fd_pr__nfet_g5v0d10v5#dbody = 3.110588e-11
m.xm6.msky130_fd_pr__nfet_g5v0d10v5#sbody = 6.221183e-12
m.xm7.msky130_fd_pr__pfet_g5v0d10v5#body = 2.300000e+00
m.xm7.msky130_fd_pr__pfet_g5v0d10v5#dbody = 2.300000e+00
m.xm7.msky130_fd_pr__pfet_g5v0d10v5#sbody = 2.300000e+00
m.xm8.msky130_fd_pr__pfet_g5v0d10v5#body = 2.300000e+00
m.xm8.msky130_fd_pr__pfet_g5v0d10v5#dbody = 2.300000e+00
m.xm8.msky130_fd_pr__pfet_g5v0d10v5#sbody = 2.300000e+00
m.xm9.msky130_fd_pr__nfet_g5v0d10v5#body = 1.763211e-11
m.xm9.msky130_fd_pr__nfet_g5v0d10v5#dbody = 4.064750e-11
m.xm9.msky130_fd_pr__nfet_g5v0d10v5#sbody = 1.224884e-11
m.xm10.msky130_fd_pr__nfet_g5v0d10v5#body = 1.723576e-11
m.xm10.msky130_fd_pr__nfet_g5v0d10v5#dbody = 3.965662e-11
m.xm10.msky130_fd_pr__nfet_g5v0d10v5#sbody = 1.205066e-11
m.xm11.msky130_fd_pr__pfet_g5v0d10v5#body = 2.300000e+00
m.xm11.msky130_fd_pr__pfet_g5v0d10v5#dbody = 2.300000e+00
m.xm11.msky130_fd_pr__pfet_g5v0d10v5#sbody = 2.300000e+00
m.xm12.msky130_fd_pr__pfet_g5v0d10v5#body = 2.300000e+00
m.xm12.msky130_fd_pr__pfet_g5v0d10v5#dbody = 2.300000e+00
m.xm12.msky130_fd_pr__pfet_g5v0d10v5#sbody = 2.300000e+00
m.xm13.msky130_fd_pr__nfet_g5v0d10v5#body = 1.715043e-12
m.xm13.msky130_fd_pr__nfet_g5v0d10v5#dbody = 4.287597e-12
m.xm13.msky130_fd_pr__nfet_g5v0d10v5#sbody = 8.575305e-13
m.xm14.msky130_fd_pr__pfet_g5v0d10v5#body = 2.300000e+00
m.xm14.msky130_fd_pr__pfet_g5v0d10v5#dbody = 2.300000e+00
m.xm14.msky130_fd_pr__pfet_g5v0d10v5#sbody = 2.300000e+00
m.xm15.msky130_fd_pr__nfet_g5v0d10v5#body = 1.777181e-15
m.xm15.msky130_fd_pr__nfet_g5v0d10v5#dbody = 4.442909e-15
m.xm15.msky130_fd_pr__nfet_g5v0d10v5#sbody = 8.886345e-16
m.xm16.msky130_fd_pr__nfet_g5v0d10v5#body = 4.303082e-11
m.xm16.msky130_fd_pr__nfet_g5v0d10v5#dbody = 7.902416e-11
m.xm16.msky130_fd_pr__nfet_g5v0d10v5#sbody = 5.006829e-11
m.xm17.msky130_fd_pr__pfet_g5v0d10v5#body = 2.300000e+00
m.xm17.msky130_fd_pr__pfet_g5v0d10v5#dbody = 2.300000e+00
m.xm17.msky130_fd_pr__pfet_g5v0d10v5#sbody = 2.300000e+00
m.xm18.msky130_fd_pr__nfet_g5v0d10v5#body = 2.033769e-11
m.xm18.msky130_fd_pr__nfet_g5v0d10v5#dbody = 5.070190e-11
m.xm18.msky130_fd_pr__nfet_g5v0d10v5#sbody = 1.016886e-11
m.xm19.msky130_fd_pr__nfet_g5v0d10v5#body = 1.700307e-11
m.xm19.msky130_fd_pr__nfet_g5v0d10v5#dbody = 3.798891e-11
m.xm19.msky130_fd_pr__nfet_g5v0d10v5#sbody = 1.302031e-11
m.xm20.msky130_fd_pr__nfet_g5v0d10v5#body = 1.307480e-11
m.xm20.msky130_fd_pr__nfet_g5v0d10v5#dbody = 3.268697e-11
m.xm20.msky130_fd_pr__nfet_g5v0d10v5#sbody = 6.537410e-12
m.xm22.msky130_fd_pr__nfet_g5v0d10v5#body = 2.262094e-12
m.xm22.msky130_fd_pr__nfet_g5v0d10v5#dbody = 5.655229e-12
m.xm22.msky130_fd_pr__nfet_g5v0d10v5#sbody = 1.131051e-12
m.xm24.msky130_fd_pr__pfet_g5v0d10v5#body = 2.300000e+00
m.xm24.msky130_fd_pr__pfet_g5v0d10v5#dbody = 2.300000e+00
m.xm24.msky130_fd_pr__pfet_g5v0d10v5#sbody = 2.300000e+00
m.xm26.msky130_fd_pr__pfet_g5v0d10v5#body = 2.300000e+00
m.xm26.msky130_fd_pr__pfet_g5v0d10v5#dbody = 2.300000e+00
m.xm26.msky130_fd_pr__pfet_g5v0d10v5#sbody = 2.300000e+00
mir = 1.169639e+00
net1 = 7.262452e-01
net2 = 1.367406e-04
net3 = 7.859391e-01
net4 = 1.804012e-01
net5 = 1.179145e+00
net6 = 9.948212e-01
net7 = 7.858665e-01
net8 = 1.241308e+00
net9 = 1.273016e+00
net10 = 1.370714e-01
net11 = 1.621190e+00
net12 = 1.621190e+00
net13 = 0.000000e+00
out = 1.621190e+00
pos = 1.097536e+00
q.xq2.qsky130_fd_pr__pnp_05v5_w0p68l0p68#collcx = 2.179789e-03
q.xq3.qsky130_fd_pr__pnp_05v5_w0p68l0p68#collcx = 2.746258e-04
q.xq4.qsky130_fd_pr__pnp_05v5_w0p68l0p68#collcx = 2.746258e-04
q.xq8.qsky130_fd_pr__pnp_05v5_w0p68l0p68#collcx = 2.746258e-04
q.xq10.qsky130_fd_pr__pnp_05v5_w0p68l0p68#collcx = 2.746258e-04
q.xq12.qsky130_fd_pr__pnp_05v5_w0p68l0p68#collcx = 2.746258e-04
q.xq14.qsky130_fd_pr__pnp_05v5_w0p68l0p68#collcx = 2.746258e-04
q.xq16.qsky130_fd_pr__pnp_05v5_w0p68l0p68#collcx = 2.746258e-04
q.xq18.qsky130_fd_pr__pnp_05v5_w0p68l0p68#collcx = 2.746258e-04
vb = 1.045851e+00
vdd = 2.300000e+00
vs#branch = -1.75771e-04
vt#branch = 0.000000e+00
xc1.a = 0.000000e+00
xc1.b1 = 0.000000e+00
xc3.a = 1.621190e+00
xc3.b1 = 1.621190e+00
xr1.xsky130_fd_pr__res_xhigh_po_0p69.ra = 7.913358e-01
xr2.xsky130_fd_pr__res_xhigh_po_0p69.ra = 7.914084e-01
xr3.xsky130_fd_pr__res_xhigh_po_0p69.ra = 3.785392e-03
xr4.xsky130_fd_pr__res_xhigh_po_0p69.ra = 7.280329e-01
xr5.xsky130_fd_pr__res_xhigh_po_0p69.ra = 3.785020e-03
xr6.xsky130_fd_pr__res_xhigh_po_0p69.ra = 5.805783e-03
xr7.xsky130_fd_pr__res_xhigh_po_0p69.ra = 1.621190e+00
xr8.xsky130_fd_pr__res_xhigh_po_0p69.ra = 1.106358e+00
xr9.xsky130_fd_pr__res_xhigh_po_0p69.ra = 9.107762e-03
Doing analysis at TEMP = 27.000000 and TNOM = 27.000000


No. of Data Rows : 91
 Reference value :  8.00000e+00Note: Starting true gmin stepping
Trying gmin =   1.0000E-03 Note: One successful gmin step
Trying gmin =   1.0000E-04 Note: One successful gmin step
Trying gmin =   1.0000E-05 Note: One successful gmin step
Trying gmin =   1.0000E-06 Note: One successful gmin step
Trying gmin =   1.0000E-07 Warning: Further gmin increment
Trying gmin =   5.6234E-07 Note: One successful gmin step
Trying gmin =   3.1623E-07 Note: One successful gmin step
Trying gmin =   1.3335E-07 Note: One successful gmin step
Trying gmin =   3.6517E-08 Warning: Further gmin increment
Trying gmin =   9.6466E-08 Note: One successful gmin step
Trying gmin =   5.9352E-08 Note: One successful gmin step
Trying gmin =   3.6517E-08 Note: One successful gmin step
Trying gmin =   1.7624E-08 Note: One successful gmin step
Trying gmin =   5.9086E-09 Note: One successful gmin step
Trying gmin =   1.1470E-09 Note: One successful gmin step
Trying gmin =   1.1470E-10 Note: One successful gmin step
Trying gmin =   1.1470E-11 Note: One successful gmin step
Trying gmin =   1.1470E-12 Note: One successful gmin step
Trying gmin =   1.0000E-12 Note: One successful gmin step
Note: True gmin stepping completed
 Reference value :  2.80000e+00Note: Starting true gmin stepping
Trying gmin =   1.0000E-03 Note: One successful gmin step
Trying gmin =   1.0000E-04 Note: One successful gmin step
Trying gmin =   1.0000E-05 Note: One successful gmin step
Trying gmin =   1.0000E-06 Note: One successful gmin step
Trying gmin =   1.0000E-07 Note: One successful gmin step
Trying gmin =   1.0000E-08 Warning: Further gmin increment
Trying gmin =   5.6234E-08 Note: One successful gmin step
Trying gmin =   2.3714E-08 Note: One successful gmin step
Trying gmin =   6.4938E-09 Note: One successful gmin step
Trying gmin =   9.3057E-10 Note: One successful gmin step
Trying gmin =   9.3057E-11 Note: One successful gmin step
Trying gmin =   9.3057E-12 Warning: Further gmin increment
Trying gmin =   5.2330E-11 Note: One successful gmin step
Trying gmin =   2.2067E-11 Note: One successful gmin step
Trying gmin =   6.0430E-12 Warning: Further gmin increment
Trying gmin =   1.5963E-11 Warning: Further gmin increment
Trying gmin =   2.0351E-11 Note: One successful gmin step
Trying gmin =   1.8024E-11 Note: One successful gmin step
Trying gmin =   1.5023E-11 Warning: Further gmin increment
Trying gmin =   1.7222E-11 Note: One successful gmin step
Trying gmin =   1.6085E-11 Note: One successful gmin step
Trying gmin =   1.5023E-11 Note: One successful gmin step
Trying gmin =   1.3560E-11 Note: One successful gmin step
Trying gmin =   1.1628E-11 Note: One successful gmin step
Trying gmin =   9.2344E-12 Note: One successful gmin step
Trying gmin =   6.5349E-12 Note: One successful gmin step
Trying gmin =   3.8903E-12 Note: One successful gmin step
Trying gmin =   1.7869E-12 Note: One successful gmin step
Trying gmin =   1.0000E-12 Note: One successful gmin step
Note: True gmin stepping completed
 Reference value :  1.16000e+00Note: Starting true gmin stepping
Trying gmin =   1.0000E-03 Note: One successful gmin step
Trying gmin =   1.0000E-04 Note: One successful gmin step
Trying gmin =   1.0000E-05 Note: One successful gmin step
Trying gmin =   1.0000E-06 Note: One successful gmin step
Trying gmin =   1.0000E-07 Note: One successful gmin step
Trying gmin =   1.0000E-08 Note: One successful gmin step
Trying gmin =   1.0000E-09 Note: One successful gmin step
Trying gmin =   1.0000E-10 Note: One successful gmin step
Trying gmin =   1.0000E-11 Note: One successful gmin step
Trying gmin =   1.0000E-12 Note: One successful gmin step
Trying gmin =   1.0000E-12 Note: One successful gmin step
Note: True gmin stepping completed
Note: Starting true gmin stepping
Trying gmin =   1.0000E-03 Note: One successful gmin step
Trying gmin =   1.0000E-04 Note: One successful gmin step
Trying gmin =   1.0000E-05 Note: One successful gmin step
Trying gmin =   1.0000E-06 Note: One successful gmin step
Trying gmin =   1.0000E-07 Note: One successful gmin step
Trying gmin =   1.0000E-08 Note: One successful gmin step
Trying gmin =   1.0000E-09 Note: One successful gmin step
Trying gmin =   1.0000E-10 Note: One successful gmin step
Trying gmin =   1.0000E-11 Note: One successful gmin step
Trying gmin =   1.0000E-12 Warning: Further gmin increment
Trying gmin =   5.6234E-12 Note: One successful gmin step
Trying gmin =   2.3714E-12 Note: One successful gmin step
Trying gmin =   1.0000E-12 Warning: Further gmin increment
Trying gmin =   1.9110E-12 Note: One successful gmin step
Trying gmin =   1.3824E-12 Note: One successful gmin step
Trying gmin =   1.0000E-12 Warning: Further gmin increment
Trying gmin =   1.2749E-12 Note: One successful gmin step
Trying gmin =   1.1291E-12 Note: One successful gmin step
Trying gmin =   1.0000E-12 Warning: Further gmin increment
Trying gmin =   1.0953E-12 Note: One successful gmin step
Trying gmin =   1.0626E-12 Note: One successful gmin step
Trying gmin =   1.0153E-12 Note: One successful gmin step
Trying gmin =   1.0000E-12 Warning: Further gmin increment
Trying gmin =   1.0114E-12 Note: One successful gmin step
Trying gmin =   1.0057E-12 Warning: Further gmin increment
Trying gmin =   1.0100E-12 Note: One successful gmin step
Trying gmin =   1.0093E-12 Note: One successful gmin step
Trying gmin =   1.0086E-12 Note: One successful gmin step
Trying gmin =   1.0079E-12 Warning: Further gmin increment
Trying gmin =   1.0084E-12 Warning: Further gmin increment
Trying gmin =   1.0085E-12 Note: One successful gmin step
Trying gmin =   1.0085E-12 Warning: Further gmin increment
Trying gmin =   1.0085E-12 Note: One successful gmin step
Trying gmin =   1.0085E-12 Warning: Last gmin step failed
Warning: True gmin stepping failed
Note: Starting dynamic gmin stepping
Trying gmin =   1.0000E-03 Note: One successful gmin step
Trying gmin =   1.0000E-04 Note: One successful gmin step
Trying gmin =   1.0000E-05 Note: One successful gmin step
Trying gmin =   1.0000E-06 Note: One successful gmin step
Trying gmin =   1.0000E-07 Note: One successful gmin step
Trying gmin =   1.0000E-08 Note: One successful gmin step
Trying gmin =   1.0000E-09 Note: One successful gmin step
Trying gmin =   1.0000E-10 Note: One successful gmin step
Trying gmin =   1.0000E-11 Note: One successful gmin step
Trying gmin =   1.0000E-12 Note: One successful gmin step
Trying gmin =   1.0000E-12 Note: One successful gmin step
Note: Dynamic gmin stepping completed
 Reference value :  7.80000e-01pm                  =  6.716564e+01
Doing analysis at TEMP = 27.000000 and TNOM = 27.000000


No. of Data Rows : 91
psrr100             =  -7.549190e+01
psrr100k            =  -2.639583e+01
Doing analysis at TEMP = 27.000000 and TNOM = 27.000000


No. of Data Rows : 86
temp_coeff = 3.573405e+01
Doing analysis at TEMP = 27.000000 and TNOM = 27.000000


No. of Data Rows : 141
vldo_sup_2          =  1.803770e+00
vldo_sup_2_8        =  1.803667e+00
line_reg = 1.287500e-04
Note: No ".plot", ".print", or ".fourier" lines; no simulations run
vin                 =  1.764100e+00
dropout = 1.000000e-04
