 Reference value :  0.00000e+00
No compatibility mode selected!


Circuit: * ldo netlist 

Doing analysis at TEMP = 85.000000 and TNOM = 27.000000


No. of Data Rows : 1
bg_out = 1.099752e+00
inn = 1.066041e+00
inp = 1.065923e+00
l1#branch = -1.73472e-18
ldo_out = 1.807514e+00
m.xm1.msky130_fd_pr__nfet_g5v0d10v5#body = 2.645415e-11
m.xm1.msky130_fd_pr__nfet_g5v0d10v5#dbody = 5.084583e-11
m.xm1.msky130_fd_pr__nfet_g5v0d10v5#sbody = 2.851662e-11
m.xm2.msky130_fd_pr__pfet_g5v0d10v5#body = 2.300000e+00
m.xm2.msky130_fd_pr__pfet_g5v0d10v5#dbody = 2.300000e+00
m.xm2.msky130_fd_pr__pfet_g5v0d10v5#sbody = 2.300000e+00
m.xm3.msky130_fd_pr__pfet_g5v0d10v5#body = 2.300000e+00
m.xm3.msky130_fd_pr__pfet_g5v0d10v5#dbody = 2.300000e+00
m.xm3.msky130_fd_pr__pfet_g5v0d10v5#sbody = 2.300000e+00
m.xm4.msky130_fd_pr__pfet_g5v0d10v5#body = 2.300000e+00
m.xm4.msky130_fd_pr__pfet_g5v0d10v5#dbody = 2.300000e+00
m.xm4.msky130_fd_pr__pfet_g5v0d10v5#sbody = 2.300000e+00
m.xm5.msky130_fd_pr__pfet_g5v0d10v5#body = 2.300000e+00
m.xm5.msky130_fd_pr__pfet_g5v0d10v5#dbody = 2.300000e+00
m.xm5.msky130_fd_pr__pfet_g5v0d10v5#sbody = 2.300000e+00
m.xm6.msky130_fd_pr__nfet_g5v0d10v5#body = 2.028451e-11
m.xm6.msky130_fd_pr__nfet_g5v0d10v5#dbody = 5.071116e-11
m.xm6.msky130_fd_pr__nfet_g5v0d10v5#sbody = 1.014236e-11
m.xm7.msky130_fd_pr__pfet_g5v0d10v5#body = 2.300000e+00
m.xm7.msky130_fd_pr__pfet_g5v0d10v5#dbody = 2.300000e+00
m.xm7.msky130_fd_pr__pfet_g5v0d10v5#sbody = 2.300000e+00
m.xm8.msky130_fd_pr__pfet_g5v0d10v5#body = 2.300000e+00
m.xm8.msky130_fd_pr__pfet_g5v0d10v5#dbody = 2.300000e+00
m.xm8.msky130_fd_pr__pfet_g5v0d10v5#sbody = 2.300000e+00
m.xm9.msky130_fd_pr__nfet_g5v0d10v5#body = 2.462469e-11
m.xm9.msky130_fd_pr__nfet_g5v0d10v5#dbody = 4.939447e-11
m.xm9.msky130_fd_pr__nfet_g5v0d10v5#sbody = 2.447961e-11
m.xm10.msky130_fd_pr__nfet_g5v0d10v5#body = 2.444157e-11
m.xm10.msky130_fd_pr__nfet_g5v0d10v5#dbody = 4.893667e-11
m.xm10.msky130_fd_pr__nfet_g5v0d10v5#sbody = 2.438805e-11
m.xm11.msky130_fd_pr__pfet_g5v0d10v5#body = 2.300000e+00
m.xm11.msky130_fd_pr__pfet_g5v0d10v5#dbody = 2.300000e+00
m.xm11.msky130_fd_pr__pfet_g5v0d10v5#sbody = 2.300000e+00
m.xm12.msky130_fd_pr__pfet_g5v0d10v5#body = 2.300000e+00
m.xm12.msky130_fd_pr__pfet_g5v0d10v5#dbody = 2.300000e+00
m.xm12.msky130_fd_pr__pfet_g5v0d10v5#sbody = 2.300000e+00
m.xm13.msky130_fd_pr__nfet_g5v0d10v5#body = 4.440523e-12
m.xm13.msky130_fd_pr__nfet_g5v0d10v5#dbody = 1.110125e-11
m.xm13.msky130_fd_pr__nfet_g5v0d10v5#sbody = 2.220323e-12
m.xm14.msky130_fd_pr__pfet_g5v0d10v5#body = 2.300000e+00
m.xm14.msky130_fd_pr__pfet_g5v0d10v5#dbody = 2.300000e+00
m.xm14.msky130_fd_pr__pfet_g5v0d10v5#sbody = 2.300000e+00
m.xm15.msky130_fd_pr__nfet_g5v0d10v5#body = 2.557555e-14
m.xm15.msky130_fd_pr__nfet_g5v0d10v5#dbody = 6.393805e-14
m.xm15.msky130_fd_pr__nfet_g5v0d10v5#sbody = 1.278861e-14
m.xm16.msky130_fd_pr__nfet_g5v0d10v5#body = 5.268184e-11
m.xm16.msky130_fd_pr__nfet_g5v0d10v5#dbody = 9.444724e-11
m.xm16.msky130_fd_pr__nfet_g5v0d10v5#sbody = 6.359826e-11
m.xm17.msky130_fd_pr__pfet_g5v0d10v5#body = 2.300000e+00
m.xm17.msky130_fd_pr__pfet_g5v0d10v5#dbody = 2.300000e+00
m.xm17.msky130_fd_pr__pfet_g5v0d10v5#sbody = 2.300000e+00
m.xm18.msky130_fd_pr__nfet_g5v0d10v5#body = 1.079404e-11
m.xm18.msky130_fd_pr__nfet_g5v0d10v5#dbody = 2.698502e-11
m.xm18.msky130_fd_pr__nfet_g5v0d10v5#sbody = 5.397091e-12
m.xm19.msky130_fd_pr__nfet_g5v0d10v5#body = 2.662353e-11
m.xm19.msky130_fd_pr__nfet_g5v0d10v5#dbody = 5.126928e-11
m.xm19.msky130_fd_pr__nfet_g5v0d10v5#sbody = 2.860131e-11
m.xm20.msky130_fd_pr__nfet_g5v0d10v5#body = 1.428346e-11
m.xm20.msky130_fd_pr__nfet_g5v0d10v5#dbody = 3.570858e-11
m.xm20.msky130_fd_pr__nfet_g5v0d10v5#sbody = 7.141806e-12
m.xm22.msky130_fd_pr__nfet_g5v0d10v5#body = 1.092913e-11
m.xm22.msky130_fd_pr__nfet_g5v0d10v5#dbody = 2.732271e-11
m.xm22.msky130_fd_pr__nfet_g5v0d10v5#sbody = 5.464664e-12
m.xm24.msky130_fd_pr__pfet_g5v0d10v5#body = 2.300000e+00
m.xm24.msky130_fd_pr__pfet_g5v0d10v5#dbody = 2.300000e+00
m.xm24.msky130_fd_pr__pfet_g5v0d10v5#sbody = 2.300000e+00
m.xm26.msky130_fd_pr__pfet_g5v0d10v5#body = 2.300000e+00
m.xm26.msky130_fd_pr__pfet_g5v0d10v5#dbody = 2.300000e+00
m.xm26.msky130_fd_pr__pfet_g5v0d10v5#sbody = 2.300000e+00
mir = 1.080497e+00
net1 = 6.354673e-01
net2 = 4.932082e-05
net3 = 7.082903e-01
net4 = 1.887755e-01
net5 = 1.094048e+00
net6 = 9.348595e-01
net7 = 7.081702e-01
net8 = 1.176204e+00
net9 = 1.190854e+00
net10 = 1.950831e-01
net11 = 7.029112e-01
net12 = 7.029112e-01
net13 = 0.000000e+00
out = 7.029112e-01
pos = 1.099914e+00
q.xq2.qsky130_fd_pr__pnp_05v5_w0p68l0p68#collcx = 2.686494e-03
q.xq3.qsky130_fd_pr__pnp_05v5_w0p68l0p68#collcx = 3.415123e-04
q.xq4.qsky130_fd_pr__pnp_05v5_w0p68l0p68#collcx = 3.415123e-04
q.xq8.qsky130_fd_pr__pnp_05v5_w0p68l0p68#collcx = 3.415123e-04
q.xq10.qsky130_fd_pr__pnp_05v5_w0p68l0p68#collcx = 3.415123e-04
q.xq12.qsky130_fd_pr__pnp_05v5_w0p68l0p68#collcx = 3.415123e-04
q.xq14.qsky130_fd_pr__pnp_05v5_w0p68l0p68#collcx = 3.415123e-04
q.xq16.qsky130_fd_pr__pnp_05v5_w0p68l0p68#collcx = 3.415123e-04
q.xq18.qsky130_fd_pr__pnp_05v5_w0p68l0p68#collcx = 3.415123e-04
vb = 9.820652e-01
vdd = 2.300000e+00
vs#branch = -1.00548e-01
vt#branch = 0.000000e+00
xc1.a = 0.000000e+00
xc1.b1 = 0.000000e+00
xc3.a = 7.029112e-01
xc3.b1 = 7.029112e-01
xr1.xsky130_fd_pr__res_xhigh_po_0p69.ra = 7.166164e-01
xr2.xsky130_fd_pr__res_xhigh_po_0p69.ra = 7.167365e-01
xr3.xsky130_fd_pr__res_xhigh_po_0p69.ra = 5.204216e-03
xr4.xsky130_fd_pr__res_xhigh_po_0p69.ra = 6.388104e-01
xr5.xsky130_fd_pr__res_xhigh_po_0p69.ra = 5.203282e-03
xr6.xsky130_fd_pr__res_xhigh_po_0p69.ra = 8.935854e-03
xr7.xsky130_fd_pr__res_xhigh_po_0p69.ra = 7.029112e-01
xr8.xsky130_fd_pr__res_xhigh_po_0p69.ra = 1.113491e+00
xr9.xsky130_fd_pr__res_xhigh_po_0p69.ra = 1.401706e-02
Doing analysis at TEMP = 85.000000 and TNOM = 27.000000


No. of Data Rows : 91
Error: no such vector PM
Note: Starting true gmin stepping
Trying gmin =   1.0000E-03 Note: One successful gmin step
Trying gmin =   1.0000E-04 Note: One successful gmin step
Trying gmin =   1.0000E-05 Note: One successful gmin step
Trying gmin =   1.0000E-06 Note: One successful gmin step
Trying gmin =   1.0000E-07 Note: One successful gmin step
Trying gmin =   1.0000E-08 Note: One successful gmin step
Trying gmin =   1.0000E-09 Note: One successful gmin step
Trying gmin =   3.1623E-10 Note: One successful gmin step
Trying gmin =   5.6234E-11 Note: One successful gmin step
Trying gmin =   5.6234E-12 Note: One successful gmin step
Trying gmin =   1.0000E-12 Note: One successful gmin step
Note: True gmin stepping completed
 Reference value :  1.20000e+00
Error: measure  pm  (AT) : out of interval
 meas ac pm find p when vdb(ldo_out)=0 failed!

Doing analysis at TEMP = 85.000000 and TNOM = 27.000000


No. of Data Rows : 91
psrr100             =  -5.007816e+01
psrr100k            =  -2.098806e+01
Doing analysis at TEMP = 85.000000 and TNOM = 27.000000


No. of Data Rows : 86
temp_coeff = 2.735951e+01
Doing analysis at TEMP = 85.000000 and TNOM = 27.000000


No. of Data Rows : 141
vldo_sup_2          =  1.779843e+00
vldo_sup_2_8        =  1.808274e+00
line_reg = 3.553875e-02
Note: No ".plot", ".print", or ".fourier" lines; no simulations run
vin                 =  1.985225e+00
dropout = 2.212250e-01
