 Reference value :  8.00000e+01Note: Starting true gmin stepping
Trying gmin =   1.0000E-03 Note: One successful gmin step
Trying gmin =   1.0000E-04 Note: One successful gmin step
Trying gmin =   1.0000E-05 Note: One successful gmin step
Trying gmin =   1.0000E-06 Note: One successful gmin step
Trying gmin =   1.0000E-07 Note: One successful gmin step
Trying gmin =   1.0000E-08 Note: One successful gmin step
Trying gmin =   1.0000E-09 Note: One successful gmin step
Trying gmin =   1.0000E-10 Warning: Further gmin increment
Trying gmin =   5.6234E-10 Note: One successful gmin step
Trying gmin =   3.1623E-10 Warning: Further gmin increment
Trying gmin =   4.8697E-10 Note: One successful gmin step
Trying gmin =   3.9242E-10 Warning: Further gmin increment
Trying gmin =   4.6138E-10 Note: One successful gmin step
Trying gmin =   4.2551E-10 Note: One successful gmin step
Trying gmin =   3.9242E-10 Note: One successful gmin step
Trying gmin =   3.4755E-10 Note: One successful gmin step
Trying gmin =   2.8968E-10 Note: One successful gmin step
Trying gmin =   2.2043E-10 Note: One successful gmin step
Trying gmin =   1.4631E-10 Note: One successful gmin step
Trying gmin =   7.9125E-11 Note: One successful gmin step
Trying gmin =   3.1468E-11 Note: One successful gmin step
Trying gmin =   7.8920E-12 Note: One successful gmin step
Trying gmin =   1.0000E-12 Note: One successful gmin step
Note: True gmin stepping completed
 Reference value :  1.40000e+00Note: Starting true gmin stepping
Trying gmin =   1.0000E-03 Note: One successful gmin step
Trying gmin =   1.0000E-04 Note: One successful gmin step
Trying gmin =   1.0000E-05 Note: One successful gmin step
Trying gmin =   1.0000E-06 Note: One successful gmin step
Trying gmin =   1.0000E-07 Note: One successful gmin step
Trying gmin =   1.0000E-08 Note: One successful gmin step
Trying gmin =   1.0000E-09 Note: One successful gmin step
Trying gmin =   1.0000E-10 Note: One successful gmin step
Trying gmin =   3.1623E-11 Note: One successful gmin step
Trying gmin =   5.6234E-12 Note: One successful gmin step
Trying gmin =   1.0000E-12 Note: One successful gmin step
Note: True gmin stepping completed

No compatibility mode selected!


Circuit: * ldo netlist 

Doing analysis at TEMP = 27.000000 and TNOM = 27.000000


No. of Data Rows : 81
temp_coeff = 2.442923e+02
Doing analysis at TEMP = 27.000000 and TNOM = 27.000000


No. of Data Rows : 151
vldo_sup_2          =  1.798015e+00
vldo_sup_3          =  1.802718e+00
line_reg = 4.703000e-03
Note: Starting true gmin stepping
Trying gmin =   1.0000E-03 Note: One successful gmin step
Trying gmin =   1.0000E-04 Note: One successful gmin step
Trying gmin =   1.0000E-05 Note: One successful gmin step
Trying gmin =   1.0000E-06 Note: One successful gmin step
Trying gmin =   1.0000E-07 Note: One successful gmin step
Trying gmin =   1.0000E-08 Warning: Further gmin increment
Trying gmin =   5.6234E-08 Warning: Further gmin increment
Trying gmin =   8.6596E-08 Note: One successful gmin step
Trying gmin =   6.9783E-08 Warning: Further gmin increment
Trying gmin =   8.2047E-08 Note: One successful gmin step
Trying gmin =   7.5667E-08 Note: One successful gmin step
Trying gmin =   6.7015E-08 Note: One successful gmin step
Trying gmin =   5.5856E-08 Note: One successful gmin step
Trying gmin =   4.2503E-08 Note: One successful gmin step
Trying gmin =   2.8212E-08 Note: One successful gmin step
Trying gmin =   1.5257E-08 Note: One successful gmin step
Trying gmin =   6.0676E-09 Warning: Further gmin increment
Trying gmin =   1.2116E-08 Note: One successful gmin step
Trying gmin =   8.5741E-09 Note: One successful gmin step
Trying gmin =   5.1043E-09 Warning: Further gmin increment
Trying gmin =   7.5314E-09 Warning: Further gmin increment
Trying gmin =   8.3006E-09 Note: One successful gmin step
Trying gmin =   7.9067E-09 Note: One successful gmin step
Trying gmin =   7.3505E-09 Warning: Further gmin increment
Trying gmin =   7.7638E-09 Warning: Further gmin increment
Trying gmin =   7.8707E-09 Warning: Further gmin increment
Trying gmin =   7.8977E-09 Note: One successful gmin step
Trying gmin =   7.8842E-09 Note: One successful gmin step
Trying gmin =   7.8640E-09 Warning: Further gmin increment
Trying gmin =   7.8791E-09 Note: One successful gmin step
Trying gmin =   7.8715E-09 Warning: Further gmin increment
Trying gmin =   7.8772E-09 Note: One successful gmin step
Trying gmin =   7.8744E-09 Note: One successful gmin step
Trying gmin =   7.8701E-09 Warning: Further gmin increment
Trying gmin =   7.8733E-09 Warning: Further gmin increment
Trying gmin =   7.8741E-09 Note: One successful gmin step
Trying gmin =   7.8737E-09 Warning: Further gmin increment
Trying gmin =   7.8740E-09 Warning: Last gmin step failed
Warning: True gmin stepping failed
Note: Starting dynamic gmin stepping
Trying gmin =   1.0000E-03 Note: One successful gmin step
Trying gmin =   1.0000E-04 Note: One successful gmin step
Trying gmin =   1.0000E-05 Note: One successful gmin step
Trying gmin =   1.0000E-06 Note: One successful gmin step
Trying gmin =   1.0000E-07 Warning: Further gmin increment
Trying gmin =   5.6234E-07 Note: One successful gmin step
Trying gmin =   2.3714E-07 Note: One successful gmin step
Trying gmin =   1.5399E-07 Note: One successful gmin step
Trying gmin =   8.0584E-08 Warning: Further gmin increment
Trying gmin =   1.3097E-07 Note: One successful gmin step
Trying gmin =   1.0274E-07 Warning: Further gmin increment
Trying gmin =   1.2326E-07 Note: One successful gmin step
Trying gmin =   1.1253E-07 Warning: Further gmin increment
Trying gmin =   1.2048E-07 Note: One successful gmin step
Trying gmin =   1.1644E-07 Note: One successful gmin step
Trying gmin =   1.1063E-07 Warning: Further gmin increment
Trying gmin =   1.1496E-07 Note: One successful gmin step
Trying gmin =   1.1277E-07 Warning: Further gmin increment
Trying gmin =   1.1441E-07 Note: One successful gmin step
Trying gmin =   1.1359E-07 Note: One successful gmin step
Trying gmin =   1.1277E-07 Note: One successful gmin step
Trying gmin =   1.1156E-07 Note: One successful gmin step
Trying gmin =   1.0977E-07 Note: One successful gmin step
Trying gmin =   1.0713E-07 Note: One successful gmin step
Trying gmin =   1.0329E-07 Note: One successful gmin step
Trying gmin =   9.7794E-08 Note: One successful gmin step
Trying gmin =   9.0090E-08 Note: One successful gmin step
Trying gmin =   7.9656E-08 Note: One successful gmin step
Trying gmin =   6.6228E-08 Note: One successful gmin step
Trying gmin =   5.0208E-08 Note: One successful gmin step
Trying gmin =   3.3141E-08 Note: One successful gmin step
Trying gmin =   1.7773E-08 Note: One successful gmin step
Trying gmin =   6.9797E-09 Note: One successful gmin step
Trying gmin =   1.7178E-09 Note: One successful gmin step
Trying gmin =   2.0973E-10 Note: One successful gmin step
Trying gmin =   2.0973E-11 Note: One successful gmin step
Trying gmin =   2.0973E-12 Note: One successful gmin step
Trying gmin =   1.0000E-12 Note: One successful gmin step
Note: Dynamic gmin stepping completed
 Reference value :  1.00000e+00Note: No ".plot", ".print", or ".fourier" lines; no simulations run
vin                 =  1.968090e+00
dropout = 2.040900e-01
Doing analysis at TEMP = 27.000000 and TNOM = 27.000000


No. of Data Rows : 91
psrr100             =  -5.345768e+00
psrr100k            =  6.551449e-01
