 Reference value :  0.00000e+00
No compatibility mode selected!


Circuit: * ldo netlist 

Doing analysis at TEMP = 85.000000 and TNOM = 27.000000


No. of Data Rows : 1
bg_out = 1.099508e+00
inn = 1.061515e+00
inp = 1.061468e+00
l1#branch = 0.000000e+00
ldo_out = 1.807618e+00
m.xm1.msky130_fd_pr__nfet_g5v0d10v5#body = 2.691521e-11
m.xm1.msky130_fd_pr__nfet_g5v0d10v5#dbody = 5.014706e-11
m.xm1.msky130_fd_pr__nfet_g5v0d10v5#sbody = 3.059857e-11
m.xm2.msky130_fd_pr__pfet_g5v0d10v5#body = 2.300000e+00
m.xm2.msky130_fd_pr__pfet_g5v0d10v5#dbody = 2.300000e+00
m.xm2.msky130_fd_pr__pfet_g5v0d10v5#sbody = 2.300000e+00
m.xm3.msky130_fd_pr__pfet_g5v0d10v5#body = 2.300000e+00
m.xm3.msky130_fd_pr__pfet_g5v0d10v5#dbody = 2.300000e+00
m.xm3.msky130_fd_pr__pfet_g5v0d10v5#sbody = 2.300000e+00
m.xm4.msky130_fd_pr__pfet_g5v0d10v5#body = 2.300000e+00
m.xm4.msky130_fd_pr__pfet_g5v0d10v5#dbody = 2.300000e+00
m.xm4.msky130_fd_pr__pfet_g5v0d10v5#sbody = 2.300000e+00
m.xm5.msky130_fd_pr__pfet_g5v0d10v5#body = 2.300000e+00
m.xm5.msky130_fd_pr__pfet_g5v0d10v5#dbody = 2.300000e+00
m.xm5.msky130_fd_pr__pfet_g5v0d10v5#sbody = 2.300000e+00
m.xm6.msky130_fd_pr__nfet_g5v0d10v5#body = 1.913500e-11
m.xm6.msky130_fd_pr__nfet_g5v0d10v5#dbody = 4.783738e-11
m.xm6.msky130_fd_pr__nfet_g5v0d10v5#sbody = 9.567615e-12
m.xm7.msky130_fd_pr__pfet_g5v0d10v5#body = 2.300000e+00
m.xm7.msky130_fd_pr__pfet_g5v0d10v5#dbody = 2.300000e+00
m.xm7.msky130_fd_pr__pfet_g5v0d10v5#sbody = 2.300000e+00
m.xm8.msky130_fd_pr__pfet_g5v0d10v5#body = 2.300000e+00
m.xm8.msky130_fd_pr__pfet_g5v0d10v5#dbody = 2.300000e+00
m.xm8.msky130_fd_pr__pfet_g5v0d10v5#sbody = 2.300000e+00
m.xm9.msky130_fd_pr__nfet_g5v0d10v5#body = 2.508424e-11
m.xm9.msky130_fd_pr__nfet_g5v0d10v5#dbody = 4.851400e-11
m.xm9.msky130_fd_pr__nfet_g5v0d10v5#sbody = 2.673872e-11
m.xm10.msky130_fd_pr__nfet_g5v0d10v5#body = 2.481147e-11
m.xm10.msky130_fd_pr__nfet_g5v0d10v5#dbody = 4.783207e-11
m.xm10.msky130_fd_pr__nfet_g5v0d10v5#sbody = 2.660234e-11
m.xm11.msky130_fd_pr__pfet_g5v0d10v5#body = 2.300000e+00
m.xm11.msky130_fd_pr__pfet_g5v0d10v5#dbody = 2.300000e+00
m.xm11.msky130_fd_pr__pfet_g5v0d10v5#sbody = 2.300000e+00
m.xm12.msky130_fd_pr__pfet_g5v0d10v5#body = 2.300000e+00
m.xm12.msky130_fd_pr__pfet_g5v0d10v5#dbody = 2.300000e+00
m.xm12.msky130_fd_pr__pfet_g5v0d10v5#sbody = 2.300000e+00
m.xm13.msky130_fd_pr__nfet_g5v0d10v5#body = 5.450911e-12
m.xm13.msky130_fd_pr__nfet_g5v0d10v5#dbody = 1.362721e-11
m.xm13.msky130_fd_pr__nfet_g5v0d10v5#sbody = 2.725524e-12
m.xm14.msky130_fd_pr__pfet_g5v0d10v5#body = 2.300000e+00
m.xm14.msky130_fd_pr__pfet_g5v0d10v5#dbody = 2.300000e+00
m.xm14.msky130_fd_pr__pfet_g5v0d10v5#sbody = 2.300000e+00
m.xm15.msky130_fd_pr__nfet_g5v0d10v5#body = 1.021096e-14
m.xm15.msky130_fd_pr__nfet_g5v0d10v5#dbody = 2.552669e-14
m.xm15.msky130_fd_pr__nfet_g5v0d10v5#sbody = 5.106200e-15
m.xm16.msky130_fd_pr__nfet_g5v0d10v5#body = 5.249931e-11
m.xm16.msky130_fd_pr__nfet_g5v0d10v5#dbody = 9.423003e-11
m.xm16.msky130_fd_pr__nfet_g5v0d10v5#sbody = 6.326790e-11
m.xm17.msky130_fd_pr__pfet_g5v0d10v5#body = 2.300000e+00
m.xm17.msky130_fd_pr__pfet_g5v0d10v5#dbody = 2.300000e+00
m.xm17.msky130_fd_pr__pfet_g5v0d10v5#sbody = 2.300000e+00
m.xm18.msky130_fd_pr__nfet_g5v0d10v5#body = 2.102475e-11
m.xm18.msky130_fd_pr__nfet_g5v0d10v5#dbody = 5.254238e-11
m.xm18.msky130_fd_pr__nfet_g5v0d10v5#sbody = 1.051245e-11
m.xm19.msky130_fd_pr__nfet_g5v0d10v5#body = 2.697870e-11
m.xm19.msky130_fd_pr__nfet_g5v0d10v5#dbody = 5.030580e-11
m.xm19.msky130_fd_pr__nfet_g5v0d10v5#sbody = 3.063032e-11
m.xm20.msky130_fd_pr__nfet_g5v0d10v5#body = 1.240913e-11
m.xm20.msky130_fd_pr__nfet_g5v0d10v5#dbody = 3.102276e-11
m.xm20.msky130_fd_pr__nfet_g5v0d10v5#sbody = 6.204643e-12
m.xm22.msky130_fd_pr__nfet_g5v0d10v5#body = 1.186499e-11
m.xm22.msky130_fd_pr__nfet_g5v0d10v5#dbody = 2.966237e-11
m.xm22.msky130_fd_pr__nfet_g5v0d10v5#sbody = 5.932608e-12
m.xm24.msky130_fd_pr__pfet_g5v0d10v5#body = 2.300000e+00
m.xm24.msky130_fd_pr__pfet_g5v0d10v5#dbody = 2.300000e+00
m.xm24.msky130_fd_pr__pfet_g5v0d10v5#sbody = 2.300000e+00
m.xm26.msky130_fd_pr__pfet_g5v0d10v5#body = 2.300000e+00
m.xm26.msky130_fd_pr__pfet_g5v0d10v5#dbody = 2.300000e+00
m.xm26.msky130_fd_pr__pfet_g5v0d10v5#sbody = 2.300000e+00
mir = 1.048363e+00
net1 = 6.298191e-01
net2 = 1.975485e-05
net3 = 7.033735e-01
net4 = 2.665618e-01
net5 = 1.053443e+00
net6 = 8.479369e-01
net7 = 7.033254e-01
net8 = 1.129661e+00
net9 = 1.151482e+00
net10 = 2.805332e-01
net11 = 1.525630e+00
net12 = 1.525630e+00
net13 = 0.000000e+00
out = 1.525630e+00
pos = 1.099762e+00
q.xq2.qsky130_fd_pr__pnp_05v5_w0p68l0p68#collcx = 2.964374e-03
q.xq3.qsky130_fd_pr__pnp_05v5_w0p68l0p68#collcx = 3.741437e-04
q.xq4.qsky130_fd_pr__pnp_05v5_w0p68l0p68#collcx = 3.741437e-04
q.xq8.qsky130_fd_pr__pnp_05v5_w0p68l0p68#collcx = 3.741437e-04
q.xq10.qsky130_fd_pr__pnp_05v5_w0p68l0p68#collcx = 3.741437e-04
q.xq12.qsky130_fd_pr__pnp_05v5_w0p68l0p68#collcx = 3.741437e-04
q.xq14.qsky130_fd_pr__pnp_05v5_w0p68l0p68#collcx = 3.741437e-04
q.xq16.qsky130_fd_pr__pnp_05v5_w0p68l0p68#collcx = 3.741437e-04
q.xq18.qsky130_fd_pr__pnp_05v5_w0p68l0p68#collcx = 3.741437e-04
vb = 8.371570e-01
vdd = 2.300000e+00
vs#branch = -1.89892e-04
vt#branch = 0.000000e+00
xc1.a = 0.000000e+00
xc1.b1 = 0.000000e+00
xc3.a = 1.525630e+00
xc3.b1 = 1.525630e+00
xr1.xsky130_fd_pr__res_xhigh_po_0p69.ra = 7.092774e-01
xr2.xsky130_fd_pr__res_xhigh_po_0p69.ra = 7.093256e-01
xr3.xsky130_fd_pr__res_xhigh_po_0p69.ra = 3.640542e-03
xr4.xsky130_fd_pr__res_xhigh_po_0p69.ra = 6.321990e-01
xr5.xsky130_fd_pr__res_xhigh_po_0p69.ra = 3.640279e-03
xr6.xsky130_fd_pr__res_xhigh_po_0p69.ra = 6.295886e-03
xr7.xsky130_fd_pr__res_xhigh_po_0p69.ra = 1.525630e+00
xr8.xsky130_fd_pr__res_xhigh_po_0p69.ra = 1.109326e+00
xr9.xsky130_fd_pr__res_xhigh_po_0p69.ra = 9.873724e-03
Doing analysis at TEMP = 85.000000 and TNOM = 27.000000


No. of Data Rows : 91
Note: Starting true gmin stepping
Trying gmin =   1.0000E-03 Note: One successful gmin step
Trying gmin =   1.0000E-04 Note: One successful gmin step
Trying gmin =   1.0000E-05 Note: One successful gmin step
Trying gmin =   1.0000E-06 Note: One successful gmin step
Trying gmin =   1.0000E-07 Note: One successful gmin step
Trying gmin =   1.0000E-08 Warning: Further gmin increment
Trying gmin =   5.6234E-08 Note: One successful gmin step
Trying gmin =   2.3714E-08 Warning: Further gmin increment
Trying gmin =   4.5316E-08 Note: One successful gmin step
Trying gmin =   3.2781E-08 Note: One successful gmin step
Trying gmin =   2.0169E-08 Note: One successful gmin step
Trying gmin =   9.7338E-09 Note: One successful gmin step
Trying gmin =   3.2634E-09 Note: One successful gmin step
Trying gmin =   6.3352E-10 Note: One successful gmin step
Trying gmin =   6.3352E-11 Note: One successful gmin step
Trying gmin =   6.3352E-12 Note: One successful gmin step
Trying gmin =   1.0000E-12 Note: One successful gmin step
Note: True gmin stepping completed
 Reference value :  1.40000e+00Note: Starting true gmin stepping
Trying gmin =   1.0000E-03 Note: One successful gmin step
Trying gmin =   1.0000E-04 Note: One successful gmin step
Trying gmin =   1.0000E-05 Note: One successful gmin step
Trying gmin =   1.0000E-06 Note: One successful gmin step
Trying gmin =   1.0000E-07 Note: One successful gmin step
Trying gmin =   1.0000E-08 Warning: Further gmin increment
Trying gmin =   5.6234E-08 Note: One successful gmin step
Trying gmin =   2.3714E-08 Warning: Further gmin increment
Trying gmin =   4.5316E-08 Note: One successful gmin step
Trying gmin =   3.2781E-08 Note: One successful gmin step
Trying gmin =   2.0169E-08 Note: One successful gmin step
Trying gmin =   9.7338E-09 Note: One successful gmin step
Trying gmin =   3.2634E-09 Note: One successful gmin step
Trying gmin =   6.3352E-10 Note: One successful gmin step
Trying gmin =   6.3352E-11 Note: One successful gmin step
Trying gmin =   6.3352E-12 Note: One successful gmin step
Trying gmin =   1.0000E-12 Note: One successful gmin step
Note: True gmin stepping completed
pm                  =  6.267228e+01
Doing analysis at TEMP = 85.000000 and TNOM = 27.000000


No. of Data Rows : 91
psrr100             =  -5.257990e+01
psrr100k            =  -2.600535e+01
Doing analysis at TEMP = 85.000000 and TNOM = 27.000000


No. of Data Rows : 86
temp_coeff = 4.455168e+01
Doing analysis at TEMP = 85.000000 and TNOM = 27.000000


No. of Data Rows : 141
vldo_sup_2          =  1.806578e+00
vldo_sup_2_8        =  1.808425e+00
line_reg = 2.308750e-03
Note: No ".plot", ".print", or ".fourier" lines; no simulations run
vin                 =  1.764176e+00
dropout = 1.760000e-04
