Note: Starting true gmin stepping
Trying gmin =   1.0000E-03 Note: One successful gmin step
Trying gmin =   1.0000E-04 Note: One successful gmin step
Trying gmin =   1.0000E-05 Note: One successful gmin step
Trying gmin =   1.0000E-06 Note: One successful gmin step
Trying gmin =   1.0000E-07 Warning: Further gmin increment
Trying gmin =   5.6234E-07 Note: One successful gmin step
Trying gmin =   2.3714E-07 Note: One successful gmin step
Trying gmin =   1.5399E-07 Note: One successful gmin step
Trying gmin =   8.0584E-08 Note: One successful gmin step
Trying gmin =   3.0505E-08 Warning: Further gmin increment
Trying gmin =   6.3209E-08 Warning: Further gmin increment
Trying gmin =   7.5837E-08 Note: One successful gmin step
Trying gmin =   6.9236E-08 Note: One successful gmin step
Trying gmin =   6.6154E-08 Note: One successful gmin step
Trying gmin =   6.1786E-08 Note: One successful gmin step
Trying gmin =   5.5770E-08 Note: One successful gmin step
Trying gmin =   4.7825E-08 Note: One successful gmin step
Trying gmin =   3.7979E-08 Note: One successful gmin step
Trying gmin =   2.6877E-08 Note: One successful gmin step
Trying gmin =   1.6000E-08 Note: One successful gmin step
Trying gmin =   7.3492E-09 Note: One successful gmin step
Trying gmin =   2.2878E-09 Note: One successful gmin step
Trying gmin =   3.9736E-10 Note: One successful gmin step
Trying gmin =   3.9736E-11 Note: One successful gmin step
Trying gmin =   3.9736E-12 Note: One successful gmin step
Trying gmin =   1.0000E-12 Note: One successful gmin step
Note: True gmin stepping completed
 Reference value :  0.00000e+00
No compatibility mode selected!


Circuit: * ldo netlist 

Doing analysis at TEMP = 27.000000 and TNOM = 27.000000


No. of Data Rows : 1
bg_out = 1.098805e+00
inn = 1.144122e+00
inp = 1.144025e+00
l1#branch = 0.000000e+00
ldo_out = 1.806762e+00
m.xm1.msky130_fd_pr__nfet_g5v0d10v5#body = 1.428935e-11
m.xm1.msky130_fd_pr__nfet_g5v0d10v5#dbody = 3.122448e-11
m.xm1.msky130_fd_pr__nfet_g5v0d10v5#sbody = 1.164355e-11
m.xm2.msky130_fd_pr__pfet_g5v0d10v5#body = 2.100000e+00
m.xm2.msky130_fd_pr__pfet_g5v0d10v5#dbody = 2.100000e+00
m.xm2.msky130_fd_pr__pfet_g5v0d10v5#sbody = 2.100000e+00
m.xm3.msky130_fd_pr__pfet_g5v0d10v5#body = 2.100000e+00
m.xm3.msky130_fd_pr__pfet_g5v0d10v5#dbody = 2.100000e+00
m.xm3.msky130_fd_pr__pfet_g5v0d10v5#sbody = 2.100000e+00
m.xm4.msky130_fd_pr__pfet_g5v0d10v5#body = 2.100000e+00
m.xm4.msky130_fd_pr__pfet_g5v0d10v5#dbody = 2.100000e+00
m.xm4.msky130_fd_pr__pfet_g5v0d10v5#sbody = 2.100000e+00
m.xm5.msky130_fd_pr__pfet_g5v0d10v5#body = 2.100000e+00
m.xm5.msky130_fd_pr__pfet_g5v0d10v5#dbody = 2.100000e+00
m.xm5.msky130_fd_pr__pfet_g5v0d10v5#sbody = 2.100000e+00
m.xm6.msky130_fd_pr__nfet_g5v0d10v5#body = 1.249543e-11
m.xm6.msky130_fd_pr__nfet_g5v0d10v5#dbody = 3.123856e-11
m.xm6.msky130_fd_pr__nfet_g5v0d10v5#sbody = 6.247718e-12
m.xm7.msky130_fd_pr__pfet_g5v0d10v5#body = 2.100000e+00
m.xm7.msky130_fd_pr__pfet_g5v0d10v5#dbody = 2.100000e+00
m.xm7.msky130_fd_pr__pfet_g5v0d10v5#sbody = 2.100000e+00
m.xm8.msky130_fd_pr__pfet_g5v0d10v5#body = 2.100000e+00
m.xm8.msky130_fd_pr__pfet_g5v0d10v5#dbody = 2.100000e+00
m.xm8.msky130_fd_pr__pfet_g5v0d10v5#sbody = 2.100000e+00
m.xm9.msky130_fd_pr__nfet_g5v0d10v5#body = 1.508096e-11
m.xm9.msky130_fd_pr__nfet_g5v0d10v5#dbody = 3.429820e-11
m.xm9.msky130_fd_pr__nfet_g5v0d10v5#sbody = 1.094467e-11
m.xm10.msky130_fd_pr__nfet_g5v0d10v5#body = 1.473792e-11
m.xm10.msky130_fd_pr__nfet_g5v0d10v5#dbody = 3.344060e-11
m.xm10.msky130_fd_pr__nfet_g5v0d10v5#sbody = 1.077315e-11
m.xm11.msky130_fd_pr__pfet_g5v0d10v5#body = 2.100000e+00
m.xm11.msky130_fd_pr__pfet_g5v0d10v5#dbody = 2.100000e+00
m.xm11.msky130_fd_pr__pfet_g5v0d10v5#sbody = 2.100000e+00
m.xm12.msky130_fd_pr__pfet_g5v0d10v5#body = 2.100000e+00
m.xm12.msky130_fd_pr__pfet_g5v0d10v5#dbody = 2.100000e+00
m.xm12.msky130_fd_pr__pfet_g5v0d10v5#sbody = 2.100000e+00
m.xm13.msky130_fd_pr__nfet_g5v0d10v5#body = 1.700747e-12
m.xm13.msky130_fd_pr__nfet_g5v0d10v5#dbody = 4.251858e-12
m.xm13.msky130_fd_pr__nfet_g5v0d10v5#sbody = 8.503831e-13
m.xm14.msky130_fd_pr__pfet_g5v0d10v5#body = 2.100000e+00
m.xm14.msky130_fd_pr__pfet_g5v0d10v5#dbody = 2.100000e+00
m.xm14.msky130_fd_pr__pfet_g5v0d10v5#sbody = 2.100000e+00
m.xm15.msky130_fd_pr__nfet_g5v0d10v5#body = 4.054546e-16
m.xm15.msky130_fd_pr__nfet_g5v0d10v5#dbody = 1.013626e-15
m.xm15.msky130_fd_pr__nfet_g5v0d10v5#sbody = 2.027374e-16
m.xm16.msky130_fd_pr__nfet_g5v0d10v5#body = 4.056028e-11
m.xm16.msky130_fd_pr__nfet_g5v0d10v5#dbody = 7.278889e-11
m.xm16.msky130_fd_pr__nfet_g5v0d10v5#sbody = 4.889194e-11
m.xm17.msky130_fd_pr__pfet_g5v0d10v5#body = 2.100000e+00
m.xm17.msky130_fd_pr__pfet_g5v0d10v5#dbody = 2.100000e+00
m.xm17.msky130_fd_pr__pfet_g5v0d10v5#sbody = 2.100000e+00
m.xm18.msky130_fd_pr__nfet_g5v0d10v5#body = 1.389570e-11
m.xm18.msky130_fd_pr__nfet_g5v0d10v5#dbody = 3.473924e-11
m.xm18.msky130_fd_pr__nfet_g5v0d10v5#sbody = 6.947864e-12
m.xm19.msky130_fd_pr__nfet_g5v0d10v5#body = 1.443075e-11
m.xm19.msky130_fd_pr__nfet_g5v0d10v5#dbody = 3.157799e-11
m.xm19.msky130_fd_pr__nfet_g5v0d10v5#sbody = 1.171425e-11
m.xm20.msky130_fd_pr__nfet_g5v0d10v5#body = 1.313197e-11
m.xm20.msky130_fd_pr__nfet_g5v0d10v5#dbody = 3.282990e-11
m.xm20.msky130_fd_pr__nfet_g5v0d10v5#sbody = 6.565996e-12
m.xm22.msky130_fd_pr__nfet_g5v0d10v5#body = 2.252149e-12
m.xm22.msky130_fd_pr__nfet_g5v0d10v5#dbody = 5.630367e-12
m.xm22.msky130_fd_pr__nfet_g5v0d10v5#sbody = 1.126079e-12
m.xm24.msky130_fd_pr__pfet_g5v0d10v5#body = 2.100000e+00
m.xm24.msky130_fd_pr__pfet_g5v0d10v5#dbody = 2.100000e+00
m.xm24.msky130_fd_pr__pfet_g5v0d10v5#sbody = 2.100000e+00
m.xm26.msky130_fd_pr__pfet_g5v0d10v5#body = 2.100000e+00
m.xm26.msky13Note: Starting true gmin stepping
Trying gmin =   1.0000E-03 Note: One successful gmin step
Trying gmin =   1.0000E-04 Note: One successful gmin step
Trying gmin =   1.0000E-05 Note: One successful gmin step
Trying gmin =   1.0000E-06 Note: One successful gmin step
Trying gmin =   1.0000E-07 Warning: Further gmin increment
Trying gmin =   5.6234E-07 Note: One successful gmin step
Trying gmin =   2.3714E-07 Note: One successful gmin step
Trying gmin =   1.5399E-07 Note: One successful gmin step
Trying gmin =   8.0584E-08 Note: One successful gmin step
Trying gmin =   3.0505E-08 Warning: Further gmin increment
Trying gmin =   6.3209E-08 Warning: Further gmin increment
Trying gmin =   7.5837E-08 Note: One successful gmin step
Trying gmin =   6.9236E-08 Note: One successful gmin step
Trying gmin =   6.6154E-08 Note: One successful gmin step
Trying gmin =   6.1786E-08 Note: One successful gmin step
Trying gmin =   5.5770E-08 Note: One successful gmin step
Trying gmin =   4.7825E-08 Note: One successful gmin step
Trying gmin =   3.7979E-08 Note: One successful gmin step
Trying gmin =   2.6877E-08 Note: One successful gmin step
Trying gmin =   1.6000E-08 Note: One successful gmin step
Trying gmin =   7.3492E-09 Note: One successful gmin step
Trying gmin =   2.2878E-09 Note: One successful gmin step
Trying gmin =   3.9736E-10 Note: One successful gmin step
Trying gmin =   3.9736E-11 Note: One successful gmin step
Trying gmin =   3.9736E-12 Note: One successful gmin step
Trying gmin =   1.0000E-12 Note: One successful gmin step
Note: True gmin stepping completed
0_fd_pr__pfet_g5v0d10v5#dbody = 2.100000e+00
m.xm26.msky130_fd_pr__pfet_g5v0d10v5#sbody = 2.100000e+00
mir = 9.628423e-01
net1 = 7.274206e-01
net2 = 3.119440e-05
net3 = 7.872744e-01
net4 = 1.796056e-01
net5 = 9.741547e-01
net6 = 9.990668e-01
net7 = 7.871757e-01
net8 = 1.042624e+00
net9 = 1.070067e+00
net10 = 1.359278e-01
net11 = 1.111523e+00
net12 = 1.111523e+00
net13 = 0.000000e+00
out = 1.111523e+00
pos = 1.099088e+00
q.xq2.qsky130_fd_pr__pnp_05v5_w0p68l0p68#collcx = 2.274154e-03
q.xq3.qsky130_fd_pr__pnp_05v5_w0p68l0p68#collcx = 2.866495e-04
q.xq4.qsky130_fd_pr__pnp_05v5_w0p68l0p68#collcx = 2.866495e-04
q.xq8.qsky130_fd_pr__pnp_05v5_w0p68l0p68#collcx = 2.866495e-04
q.xq10.qsky130_fd_pr__pnp_05v5_w0p68l0p68#collcx = 2.866495e-04
q.xq12.qsky130_fd_pr__pnp_05v5_w0p68l0p68#collcx = 2.866495e-04
q.xq14.qsky130_fd_pr__pnp_05v5_w0p68l0p68#collcx = 2.866495e-04
q.xq16.qsky130_fd_pr__pnp_05v5_w0p68l0p68#collcx = 2.866495e-04
q.xq18.qsky130_fd_pr__pnp_05v5_w0p68l0p68#collcx = 2.866495e-04
vb = 1.050424e+00
vdd = 2.100000e+00
vs#branch = -1.01677e-02
vt#branch = 0.000000e+00
xc1.a = 0.000000e+00
xc1.b1 = 0.000000e+00
xc3.a = 1.111523e+00
xc3.b1 = 1.111523e+00
xr1.xsky130_fd_pr__res_xhigh_po_0p69.ra = 7.901567e-01
xr2.xsky130_fd_pr__res_xhigh_po_0p69.ra = 7.902555e-01
xr3.xsky130_fd_pr__res_xhigh_po_0p69.ra = 2.064300e-03
xr4.xsky130_fd_pr__res_xhigh_po_0p69.ra = 7.283940e-01
xr5.xsky130_fd_pr__res_xhigh_po_0p69.ra = 2.064024e-03
xr6.xsky130_fd_pr__res_xhigh_po_0p69.ra = 3.165255e-03
xr7.xsky130_fd_pr__res_xhigh_po_0p69.ra = 1.111523e+00
xr8.xsky130_fd_pr__res_xhigh_po_0p69.ra = 1.103895e+00
xr9.xsky130_fd_pr__res_xhigh_po_0p69.ra = 4.963131e-03
Doing analysis at TEMP = 27.000000 and TNOM = 27.000000


No. of Data Rows : 91
Error: no such vector PM
Note: Starting true gmin stepping
Trying gmin =   1.0000E-03 Note: One successful gmin step
Trying gmin =   1.0000E-04 Note: One successful gmin step
Trying gmin =   1.0000E-05 Note: One successful gmin step
Trying gmin =   1.0000E-06 Note: One successful gmin step
Trying gmin =   1.0000E-07 Warning: Further gmin increment
Trying gmin =   5.6234E-07 Note: One successful gmin step
Trying gmin =   2.3714E-07 Note: One successful gmin step
Trying gmin =   1.5399E-07 Note: One successful gmin step
Trying gmin =   8.0584E-08 Note: One successful gmin step
Trying gmin =   3.0505E-08 Warning: Further gmin increment
Trying gmin =   6.3209E-08 Warning: Further gmin increment
Trying gmin =   7.5837E-08 Note: One successful gmin step
Trying gmin =   6.9236E-08 Note: One successful gmin step
Trying gmin =   6.6154E-08 Note: One successful gmin step
Trying gmin =   6.1786E-08 Note: One successful gmin step
Trying gmin =   5.5770E-08 Note: One successful gmin step
Trying gmin =   4.7825E-08 Note: One successful gmin step
Trying gmin =   3.7979E-08 Note: One successful gmin step
Trying gmin =   2.6877E-08 Note: One successful gmin step
Trying gmin =   1.6000E-08 Note: One successful gmin step
Trying gmin =   7.3492E-09 Note: One successful gmin step
Trying gmin =   2.2878E-09 Note: One successful gmin step
Trying gmin =   3.9736E-10 Note: One successful gmin step
Trying gmin =   3.9736E-11 Note: One successful gmin step
Trying gmin =   3.9736E-12 Note: One successful gmin step
Trying gmin =   1.0000E-12 Note: One successful gmin step
Note: True gmin stepping completed
 Reference value :  1.00000e+00Note: Starting true gmin stepping
Trying gmin =   1.0000E-03 Note: One successful gmin step
Trying gmin =   1.0000E-04 Note: One successful gmin step
Trying gmin =   1.0000E-05 Note: One successful gmin step
Trying gmin =   1.0000E-06 Note: One successful gmin step
Trying gmin =   1.0000E-07 Warning: Further gmin increment
Trying gmin =   5.6234E-07 Warning: Further gmin increment
Trying gmin =   8.6596E-07 Note: One successful gmin step
Trying gmin =   6.9783E-07 Warning: Further gmin increment
Trying gmin =   8.2047E-07 Note: One successful gmin step
Trying gmin =   7.5667E-07 Note: One successful gmin step
Trying gmin =   6.7015E-07 Warning: Further gmin increment
Trying gmin =   7.3404E-07 Note: One successful gmin step
Trying gmin =   7.0137E-07 Note: One successful gmin step
Trying gmin =   6.5506E-07 Warning: Further gmin increment
Trying gmin =   6.8950E-07 Warning: Further gmin increment
Trying gmin =   6.9838E-07 Note: One successful gmin step
Trying gmin =   6.9392E-07 Warning: Further gmin increment
Trying gmin =   6.9727E-07 Warning: Further gmin increment
Trying gmin =   6.9810E-07 Warning: Further gmin increment
Trying gmin =   6.9831E-07 Warning: Further gmin increment
Trying gmin =   6.9836E-07 Note: One successful gmin step
Trying gmin =   6.9834E-07 Note: One successful gmin step
Trying gmin =   6.9830E-07 Warning: Further gmin increment
Trying gmin =   6.9833E-07 Note: One successful gmin step
Trying gmin =   6.9831E-07 Warning: Last gmin step failed
Warning: True gmin stepping failed
Note: Starting dynamic gmin stepping
Trying gmin =   1.0000E-03 Note: One successful gmin step
Trying gmin =   1.0000E-04 Note: One successful gmin step
Trying gmin =   1.0000E-05 Note: One successful gmin step
Trying gmin =   1.0000E-06 Note: One successful gmin step
Trying gmin =   1.0000E-07 Warning: Further gmin increment
Trying gmin =   5.6234E-07 Warning: Further gmin increment
Trying gmin =   8.6596E-07 Note: One successful gmin step
Trying gmin =   6.9783E-07 Note: One successful gmin step
Trying gmin =   5.0481E-07 Note: One successful gmin step
Trying gmin =   3.1059E-07 Note: One successful gmin step
Trying gmin =   1.4989E-07 Note: One successful gmin step
Trying gmin =   5.0254E-08 Note: One successful gmin step
Trying gmin =   9.7557E-09 Note: One successful gmin step
Trying gmin =   9.7557E-10 Note: One successful gmin step
Trying gmin =   9.7557E-11 Note: One successful gmin step
Trying gmin =   9.7557E-12 Note: One successful gmin step
Trying gmin =   1.0000E-12 Note: One successful gmin step
Note: Dynamic gmin stepping completed
 Reference value :  8.50000e+01Note: Starting true gmin stepping
Trying gmin =   1.0000E-03 Note: One successful gmin step
Trying gmin =   1.0000E-04 Note: One successful gmin step
Trying gmin =   1.0000E-05 Note: One successful gmin step
Trying gmin =   1.0000E-06 Warning: Further gmin increment
Trying gmin =   5.6234E-06 Note: One successful gmin step
Trying gmin =   2.3714E-06 Warning: Further gmin increment
Trying gmin =   4.5316E-06 Note: One successful gmin step
Trying gmin =   3.2781E-06 Note: One successful gmin step
Trying gmin =   2.0169E-06 Warning: Further gmin increment
Trying gmin =   2.9033E-06 Note: One successful gmin step
Trying gmin =   2.4199E-06 Warning: Further gmin increment
Trying gmin =   2.7741E-06 Note: One successful gmin step
Trying gmin =   2.5909E-06 Note: One successful gmin step
Trying gmin =   2.3386E-06 Warning: Further gmin increment
Trying gmin =   2.5254E-06 Note: One successful gmin step
Trying gmin =   2.4302E-06 Note: One successful gmin step
Trying gmin =   2.2941E-06 Note: One successful gmin step
Trying gmin =   2.1041E-06 Note: One successful gmin step
Trying gmin =   1.8482E-06 Note: One successful gmin step
Trying gmin =   1.5216E-06 Note: One successful gmin step
Trying gmin =   1.1365E-06 Note: One successful gmin step
Trying gmin =   7.3371E-07 Note: One successful gmin step
Trying gmin =   3.8057E-07 Note: One successful gmin step
Trying gmin =   1.4217E-07 Note: One successful gmin step
Trying gmin =   3.2461E-08 Note: One successful gmin step
Trying gmin =   3.5415E-09 Note: One successful gmin step
Trying gmin =   3.5415E-10 Note: One successful gmin step
Trying gmin =   3.5415E-11 Note: One successful gmin step
Trying gmin =   3.5415E-12 Note: One successful gmin step
Trying gmin =   1.0000E-12 Note: One successful gmin step
Note: True gmin stepping completed
 Reference value :  2.80000e+00Note: Starting true gmin stepping
Trying gmin =   1.0000E-03 Note: One successful gmin step
Trying gmin =   1.0000E-04 Note: One successful gmin step
Trying gmin =   1.0000E-05 Note: One successful gmin step
Trying gmin =   1.0000E-06 Note: One successful gmin step
Trying gmin =   1.0000E-07 Note: One successful gmin step
Trying gmin =   1.0000E-08 Note: One successful gmin step
Trying gmin =   1.0000E-09 Note: One successful gmin step
Trying gmin =   1.0000E-10 Warning: Further gmin increment
Trying gmin =   5.6234E-10 Note: One successful gmin step
Trying gmin =   2.3714E-10 Note: One successful gmin step
Trying gmin =   6.4938E-11 Warning: Further gmin increment
Trying gmin =   1.7154E-10 Note: One successful gmin step
Trying gmin =   1.0554E-10 Note: One successful gmin step
Trying gmin =   5.0937E-11 Note: One successful gmin step
Trying gmin =   1.7077E-11 Note: One successful gmin step
Trying gmin =   3.3152E-12 Error: -6.47673e+168, 2 out of range for ^
Warning: Further gmin increment
Trying gmin =   1.1336E-11 Warning: Further gmin increment
Trying gmin =   1.5414E-11 Note: One successful gmin step
Trying gmin =   1.3913E-11 Note: One successful gmin step
Trying gmin =   1.1931E-11 Note: One successful gmin step
Trying gmin =   9.4750E-12 Note: One successful gmin step
Trying gmin =   6.7051E-12 Note: One successful gmin step
Trying gmin =   3.9917E-12 Note: One successful gmin step
Trying gmin =   1.8335E-12 Note: One successful gmin step
Trying gmin =   1.0000E-12 Note: One successful gmin step
Note: True gmin stepping completed
 Reference value :  1.16000e+00Note: Starting true gmin stepping
Trying gmin =   1.0000E-03 Note: One successful gmin step
Trying gmin =   1.0000E-04 Note: One successful gmin step
Trying gmin =   1.0000E-05 Note: One successful gmin step
Trying gmin =   1.0000E-06 Note: One successful gmin step
Trying gmin =   1.0000E-07 Note: One successful gmin step
Trying gmin =   1.0000E-08 Note: One successful gmin step
Trying gmin =   3.1623E-09 Note: One successful gmin step
Trying gmin =   5.6234E-10 Note: One successful gmin step
Trying gmin =   5.6234E-11 Warning: Further gmin increment
Trying gmin =   3.1623E-10 Note: One successful gmin step
Trying gmin =   1.3335E-10 Note: One successful gmin step
Trying gmin =   3.6517E-11 Note: One successful gmin step
Trying gmin =   5.2330E-12 Warning: Further gmin increment
Trying gmin =   2.2468E-11 Note: One successful gmin step
Trying gmin =   1.0843E-11 Note: One successful gmin step
Trying gmin =   3.6354E-12 Note: One successful gmin step
Trying gmin =   1.0000E-12 Note: One successful gmin step
Note: True gmin stepping completed
 Reference value :  7.20000e-01
Error: measure  pm  (AT) : out of interval
 meas ac pm find p when vdb(ldo_out)=0 failed!

Doing analysis at TEMP = 27.000000 and TNOM = 27.000000


No. of Data Rows : 91
psrr100             =  -7.814923e+01
psrr100k            =  -2.522255e+01
Doing analysis at TEMP = 27.000000 and TNOM = 27.000000


No. of Data Rows : 86
temp_coeff = 5.134822e+01
Doing analysis at TEMP = 27.000000 and TNOM = 27.000000


No. of Data Rows : 141
vldo_sup_2          =  1.806770e+00
vldo_sup_2_8        =  1.806705e+00
line_reg = 8.125000e-05
Note: No ".plot", ".print", or ".fourier" lines; no simulations run
vin                 =  1.778019e+00
dropout = 1.401900e-02
