Note: Starting true gmin stepping
Trying gmin =   1.0000E-03 Note: One successful gmin step
Trying gmin =   1.0000E-04 Note: One successful gmin step
Trying gmin =   1.0000E-05 Note: One successful gmin step
Trying gmin =   1.0000E-06 Note: One successful gmin step
Trying gmin =   1.0000E-07 Warning: Further gmin increment
Trying gmin =   5.6234E-07 Note: One successful gmin step
Trying gmin =   2.3714E-07 Note: One successful gmin step
Trying gmin =   6.4938E-08 Warning: Further gmin increment
Trying gmin =   1.7154E-07 Note: One successful gmin step
Trying gmin =   1.0554E-07 Warning: Further gmin increment
Trying gmin =   1.5193E-07 Warning: Further gmin increment
Trying gmin =   1.6641E-07 Note: One successful gmin step
Trying gmin =   1.5901E-07 Note: One successful gmin step
Trying gmin =   1.4851E-07 Warning: Further gmin increment
Trying gmin =   1.5631E-07 Note: One successful gmin step
Trying gmin =   1.5236E-07 Warning: Further gmin increment
Trying gmin =   1.5532E-07 Warning: Further gmin increment
Trying gmin =   1.5606E-07 Warning: Further gmin increment
Trying gmin =   1.5625E-07 Note: One successful gmin step
Trying gmin =   1.5616E-07 Warning: Further gmin increment
Trying gmin =   1.5623E-07 Warning: Further gmin increment
Trying gmin =   1.5625E-07 Warning: Last gmin step failed
Warning: True gmin stepping failed
Note: Starting dynamic gmin stepping
Trying gmin =   1.0000E-03 Note: One successful gmin step
Trying gmin =   1.0000E-04 Note: One successful gmin step
Trying gmin =   1.0000E-05 Note: One successful gmin step
Trying gmin =   1.0000E-06 Note: One successful gmin step
Trying gmin =   1.0000E-07 Warning: Further gmin increment
Trying gmin =   5.6234E-07 Warning: Further gmin increment
Trying gmin =   8.6596E-07 Note: One successful gmin step
Trying gmin =   6.9783E-07 Note: One successful gmin step
Trying gmin =   5.0481E-07 Note: One successful gmin step
Trying gmin =   3.1059E-07 Note: One successful gmin step
Trying gmin =   1.4989E-07 Note: One successful gmin step
Trying gmin =   5.0254E-08 Note: One successful gmin step
Trying gmin =   9.7557E-09 Note: One successful gmin step
Trying gmin =   9.7557E-10 Note: One successful gmin step
Trying gmin =   9.7557E-11 Note: One successful gmin step
Trying gmin =   9.7557E-12 Note: One successful gmin step
Trying gmin =   1.0000E-12 Note: One successful gmin step
Note: Dynamic gmin stepping completed
 Reference value :  0.00000e+00
No compatibility mode selected!


Circuit: * ldo netlist 

Doing analysis at TEMP = 0.000000 and TNOM = 27.000000


No. of Data Rows : 1
bg_out = 1.192020e+00
inn = 1.259155e+00
inp = 1.259137e+00
l1#branch = 0.000000e+00
ldo_out = 1.792167e+00
m.xm1.msky130_fd_pr__nfet_g5v0d10v5#body = 1.988021e-11
m.xm1.msky130_fd_pr__nfet_g5v0d10v5#dbody = 4.357716e-11
m.xm1.msky130_fd_pr__nfet_g5v0d10v5#sbody = 1.606348e-11
m.xm2.msky130_fd_pr__pfet_g5v0d10v5#body = 2.500000e+00
m.xm2.msky130_fd_pr__pfet_g5v0d10v5#dbody = 2.500000e+00
m.xm2.msky130_fd_pr__pfet_g5v0d10v5#sbody = 2.500000e+00
m.xm3.msky130_fd_pr__pfet_g5v0d10v5#body = 2.500000e+00
m.xm3.msky130_fd_pr__pfet_g5v0d10v5#dbody = 2.500000e+00
m.xm3.msky130_fd_pr__pfet_g5v0d10v5#sbody = 2.500000e+00
m.xm4.msky130_fd_pr__pfet_g5v0d10v5#body = 2.500000e+00
m.xm4.msky130_fd_pr__pfet_g5v0d10v5#dbody = 2.500000e+00
m.xm4.msky130_fd_pr__pfet_g5v0d10v5#sbody = 2.500000e+00
m.xm5.msky130_fd_pr__pfet_g5v0d10v5#body = 2.500000e+00
m.xm5.msky130_fd_pr__pfet_g5v0d10v5#dbody = 2.500000e+00
m.xm5.msky130_fd_pr__pfet_g5v0d10v5#sbody = 2.500000e+00
m.xm6.msky130_fd_pr__nfet_g5v0d10v5#body = 1.260255e-11
m.xm6.msky130_fd_pr__nfet_g5v0d10v5#dbody = 3.150637e-11
m.xm6.msky130_fd_pr__nfet_g5v0d10v5#sbody = 6.301279e-12
m.xm7.msky130_fd_pr__pfet_g5v0d10v5#body = 2.500000e+00
m.xm7.msky130_fd_pr__pfet_g5v0d10v5#dbody = 2.500000e+00
m.xm7.msky130_fd_pr__pfet_g5v0d10v5#sbody = 2.500000e+00
m.xm8.msky130_fd_pr__pfet_g5v0d10v5#body = 2.500000e+00
m.xm8.msky130_fd_pr__pfet_g5v0d10v5#dbody = 2.500000e+00
m.xm8.msky130_fd_pr__pfet_g5v0d10v5#sbody = 2.500000e+00
m.xm9.msky130_fd_pr__nfet_g5v0d10v5#body = 2.018452e-11
m.xm9.msky130_fd_pr__nfet_g5v0d10v5#dbody = 4.587833e-11
m.xm9.msky130_fd_pr__nfet_g5v0d10v5#sbody = 1.467508e-11
m.xm10.msky130_fd_pr__nfet_g5v0d10v5#body = 2.000726e-11
m.xm10.msky130_fd_pr__nfet_g5v0d10v5#dbody = 4.543523e-11
m.xm10.msky130_fd_pr__nfet_g5v0d10v5#sbody = 1.458645e-11
m.xm11.msky130_fd_pr__pfet_g5v0d10v5#body = 2.500000e+00
m.xm11.msky130_fd_pr__pfet_g5v0d10v5#dbody = 2.500000e+00
m.xm11.msky130_fd_pr__pfet_g5v0d10v5#sbody = 2.500000e+00
m.xm12.msky130_fd_pr__pfet_g5v0d10v5#body = 2.500000e+00
m.xm12.msky130_fd_pr__pfet_g5v0d10v5#dbody = 2.500000e+00
m.xm12.msky130_fd_pr__pfet_g5v0d10v5#sbody = 2.500000e+00
m.xm13.msky130_fd_pr__nfet_g5v0d10v5#body = 2.291391e-12
m.xm13.msky130_fd_pr__nfet_g5v0d10v5#dbody = 5.728468e-12
m.xm13.msky130_fd_pr__nfet_g5v0d10v5#sbody = 1.145704e-12
m.xm14.msky130_fd_pr__pfet_g5v0d10v5#body = 2.500000e+00
m.xm14.msky130_fd_pr__pfet_g5v0d10v5#dbody = 2.500000e+00
m.xm14.msky130_fd_pr__pfet_g5v0d10v5#sbody = 2.500000e+00
m.xm15.msky130_fd_pr__nfet_g5v0d10v5#body = 1.543882e-15
m.xm15.msky130_fd_pr__nfet_g5v0d10v5#dbody = 3.859644e-15
m.xm15.msky130_fd_pr__nfet_g5v0d10v5#sbody = 7.720034e-16
m.xm16.msky130_fd_pr__nfet_g5v0d10v5#body = 4.698955e-11
m.xm16.msky130_fd_pr__nfet_g5v0d10v5#dbody = 8.599490e-11
m.xm16.msky130_fd_pr__nfet_g5v0d10v5#sbody = 5.497376e-11
m.xm17.msky130_fd_pr__pfet_g5v0d10v5#body = 2.500000e+00
m.xm17.msky130_fd_pr__pfet_g5v0d10v5#dbody = 2.500000e+00
m.xm17.msky130_fd_pr__pfet_g5v0d10v5#sbody = 2.500000e+00
m.xm18.msky130_fd_pr__nfet_g5v0d10v5#body = 1.436064e-11
m.xm18.msky130_fd_pr__nfet_g5v0d10v5#dbody = 3.590158e-11
m.xm18.msky130_fd_pr__nfet_g5v0d10v5#sbody = 7.180330e-12
m.xm19.msky130_fd_pr__nfet_g5v0d10v5#body = 1.991422e-11
m.xm19.msky130_fd_pr__nfet_g5v0d10v5#dbody = 4.366218e-11
m.xm19.msky130_fd_pr__nfet_g5v0d10v5#sbody = 1.608048e-11
m.xm20.msky130_fd_pr__nfet_g5v0d10v5#body = 1.322639e-11
m.xm20.msky130_fd_pr__nfet_g5v0d10v5#dbody = 3.306597e-11
m.xm20.msky130_fd_pr__nfet_g5v0d10v5#sbody = 6.613208e-12
m.xm22.msky130_fd_pr__nfet_g5v0d10v5#body = 3.061721e-12
m.xm22.msky130_fd_pr__nfet_g5v0d10v5#dbody = 7.654298e-12
m.xm22.msky130_fd_pr__nfet_g5v0d10v5#sbody = 1.530865e-12
m.xm24.msky130_fd_pr__pfet_g5v0d10v5#body = 2.500000e+00
m.xm24.msky130_fd_pr__pfet_g5v0d10v5#dbody = 2.500000e+00
m.xm24.msky130_fd_pr__pfet_g5v0d10v5#sbody = 2.500000e+00
m.xm26.msky130_fd_pr__pfet_g5v0d10v5#body = 2.500000e+00
m.xm26.msky130Note: Starting true gmin stepping
Trying gmin =   1.0000E-03 Note: One successful gmin step
Trying gmin =   1.0000E-04 Note: One successful gmin step
Trying gmin =   1.0000E-05 Note: One successful gmin step
Trying gmin =   1.0000E-06 Note: One successful gmin step
Trying gmin =   1.0000E-07 Warning: Further gmin increment
Trying gmin =   5.6234E-07 Note: One successful gmin step
Trying gmin =   2.3714E-07 Note: One successful gmin step
Trying gmin =   6.4938E-08 Warning: Further gmin increment
Trying gmin =   1.7154E-07 Note: One successful gmin step
Trying gmin =   1.0554E-07 Warning: Further gmin increment
Trying gmin =   1.5193E-07 Warning: Further gmin increment
Trying gmin =   1.6641E-07 Note: One successful gmin step
Trying gmin =   1.5901E-07 Note: One successful gmin step
Trying gmin =   1.4851E-07 Warning: Further gmin increment
Trying gmin =   1.5631E-07 Note: One successful gmin step
Trying gmin =   1.5236E-07 Warning: Further gmin increment
Trying gmin =   1.5532E-07 Warning: Further gmin increment
Trying gmin =   1.5606E-07 Warning: Further gmin increment
Trying gmin =   1.5625E-07 Note: One successful gmin step
Trying gmin =   1.5616E-07 Warning: Further gmin increment
Trying gmin =   1.5623E-07 Warning: Further gmin increment
Trying gmin =   1.5625E-07 Warning: Last gmin step failed
Warning: True gmin stepping failed
Note: Starting dynamic gmin stepping
Trying gmin =   1.0000E-03 Note: One successful gmin step
Trying gmin =   1.0000E-04 Note: One successful gmin step
Trying gmin =   1.0000E-05 Note: One successful gmin step
Trying gmin =   1.0000E-06 Note: One successful gmin step
Trying gmin =   1.0000E-07 Warning: Further gmin increment
Trying gmin =   5.6234E-07 Warning: Further gmin increment
Trying gmin =   8.6596E-07 Note: One successful gmin step
Trying gmin =   6.9783E-07 Note: One successful gmin step
Trying gmin =   5.0481E-07 Note: One successful gmin step
Trying gmin =   3.1059E-07 Note: One successful gmin step
Trying gmin =   1.4989E-07 Note: One successful gmin step
Trying gmin =   5.0254E-08 Note: One successful gmin step
Trying gmin =   9.7557E-09 Note: One successful gmin step
Trying gmin =   9.7557E-10 Note: One successful gmin step
Trying gmin =   9.7557E-11 Note: One successful gmin step
Trying gmin =   9.7557E-12 Note: One successful gmin step
Trying gmin =   1.0000E-12 Note: One successful gmin step
Note: Dynamic gmin stepping completed
 Reference value :  1.00000e+00_fd_pr__pfet_g5v0d10v5#dbody = 2.500000e+00
m.xm26.msky130_fd_pr__pfet_g5v0d10v5#sbody = 2.500000e+00
mir = 1.345477e+00
net1 = 7.690080e-01
net2 = 1.234373e-04
net3 = 8.225327e-01
net4 = 2.449300e-01
net5 = 1.348198e+00
net6 = 1.008196e+00
net7 = 8.225140e-01
net8 = 1.417261e+00
net9 = 1.431440e+00
net10 = 1.833094e-01
net11 = 1.148849e+00
net12 = 1.148849e+00
net13 = 0.000000e+00
out = 1.148849e+00
pos = 1.192137e+00
q.xq2.qsky130_fd_pr__pnp_05v5_w0p68l0p68#collcx = 1.781871e-03
q.xq3.qsky130_fd_pr__pnp_05v5_w0p68l0p68#collcx = 2.241729e-04
q.xq4.qsky130_fd_pr__pnp_05v5_w0p68l0p68#collcx = 2.241729e-04
q.xq8.qsky130_fd_pr__pnp_05v5_w0p68l0p68#collcx = 2.241729e-04
q.xq10.qsky130_fd_pr__pnp_05v5_w0p68l0p68#collcx = 2.241729e-04
q.xq12.qsky130_fd_pr__pnp_05v5_w0p68l0p68#collcx = 2.241729e-04
q.xq14.qsky130_fd_pr__pnp_05v5_w0p68l0p68#collcx = 2.241729e-04
q.xq16.qsky130_fd_pr__pnp_05v5_w0p68l0p68#collcx = 2.241729e-04
q.xq18.qsky130_fd_pr__pnp_05v5_w0p68l0p68#collcx = 2.241729e-04
vb = 1.058110e+00
vdd = 2.500000e+00
vs#branch = -9.96803e-02
vt#branch = 0.000000e+00
xc1.a = 0.000000e+00
xc1.b1 = 0.000000e+00
xc3.a = 1.148849e+00
xc3.b1 = 1.148849e+00
xr1.xsky130_fd_pr__res_xhigh_po_0p69.ra = 8.297447e-01
xr2.xsky130_fd_pr__res_xhigh_po_0p69.ra = 8.297633e-01
xr3.xsky130_fd_pr__res_xhigh_po_0p69.ra = 5.158629e-03
xr4.xsky130_fd_pr__res_xhigh_po_0p69.ra = 7.712014e-01
xr5.xsky130_fd_pr__res_xhigh_po_0p69.ra = 5.158505e-03
xr6.xsky130_fd_pr__res_xhigh_po_0p69.ra = 7.700008e-03
xr7.xsky130_fd_pr__res_xhigh_po_0p69.ra = 1.148849e+00
xr8.xsky130_fd_pr__res_xhigh_po_0p69.ra = 1.204951e+00
xr9.xsky130_fd_pr__res_xhigh_po_0p69.ra = 1.343796e-02
Doing analysis at TEMP = 0.000000 and TNOM = 27.000000


No. of Data Rows : 91
Note: Starting true gmin stepping
Trying gmin =   1.0000E-03 Note: One successful gmin step
Trying gmin =   1.0000E-04 Note: One successful gmin step
Trying gmin =   1.0000E-05 Note: One successful gmin step
Trying gmin =   1.0000E-06 Note: One successful gmin step
Trying gmin =   1.0000E-07 Warning: Further gmin increment
Trying gmin =   5.6234E-07 Note: One successful gmin step
Trying gmin =   2.3714E-07 Note: One successful gmin step
Trying gmin =   6.4938E-08 Warning: Further gmin increment
Trying gmin =   1.7154E-07 Note: One successful gmin step
Trying gmin =   1.0554E-07 Warning: Further gmin increment
Trying gmin =   1.5193E-07 Warning: Further gmin increment
Trying gmin =   1.6641E-07 Note: One successful gmin step
Trying gmin =   1.5901E-07 Note: One successful gmin step
Trying gmin =   1.4851E-07 Warning: Further gmin increment
Trying gmin =   1.5631E-07 Note: One successful gmin step
Trying gmin =   1.5236E-07 Warning: Further gmin increment
Trying gmin =   1.5532E-07 Warning: Further gmin increment
Trying gmin =   1.5606E-07 Warning: Further gmin increment
Trying gmin =   1.5625E-07 Note: One successful gmin step
Trying gmin =   1.5616E-07 Warning: Further gmin increment
Trying gmin =   1.5623E-07 Warning: Further gmin increment
Trying gmin =   1.5625E-07 Warning: Last gmin step failed
Warning: True gmin stepping failed
Note: Starting dynamic gmin stepping
Trying gmin =   1.0000E-03 Note: One successful gmin step
Trying gmin =   1.0000E-04 Note: One successful gmin step
Trying gmin =   1.0000E-05 Note: One successful gmin step
Trying gmin =   1.0000E-06 Note: One successful gmin step
Trying gmin =   1.0000E-07 Warning: Further gmin increment
Trying gmin =   5.6234E-07 Warning: Further gmin increment
Trying gmin =   8.6596E-07 Note: One successful gmin step
Trying gmin =   6.9783E-07 Note: One successful gmin step
Trying gmin =   5.0481E-07 Note: One successful gmin step
Trying gmin =   3.1059E-07 Note: One successful gmin step
Trying gmin =   1.4989E-07 Note: One successful gmin step
Trying gmin =   5.0254E-08 Note: One successful gmin step
Trying gmin =   9.7557E-09 Note: One successful gmin step
Trying gmin =   9.7557E-10 Note: One successful gmin step
Trying gmin =   9.7557E-11 Note: One successful gmin step
Trying gmin =   9.7557E-12 Note: One successful gmin step
Trying gmin =   1.0000E-12 Note: One successful gmin step
Note: Dynamic gmin stepping completed
 Reference value :  1.00000e+00Note: Starting true gmin stepping
Trying gmin =   1.0000E-03 Note: One successful gmin step
Trying gmin =   1.0000E-04 Note: One successful gmin step
Trying gmin =   1.0000E-05 Note: One successful gmin step
Trying gmin =   1.0000E-06 Warning: Further gmin increment
Trying gmin =   5.6234E-06 Note: One successful gmin step
Trying gmin =   2.3714E-06 Note: One successful gmin step
Trying gmin =   6.4938E-07 Warning: Further gmin increment
Trying gmin =   1.7154E-06 Note: One successful gmin step
Trying gmin =   1.0554E-06 Note: One successful gmin step
Trying gmin =   5.0937E-07 Note: One successful gmin step
Trying gmin =   1.7077E-07 Warning: Further gmin increment
Trying gmin =   3.8760E-07 Note: One successful gmin step
Trying gmin =   2.5728E-07 Note: One successful gmin step
Trying gmin =   1.3913E-07 Note: One successful gmin step
Trying gmin =   5.5333E-08 Warning: Further gmin increment
Trying gmin =   1.1049E-07 Warning: Further gmin increment
Trying gmin =   1.3134E-07 Note: One successful gmin step
Trying gmin =   1.2047E-07 Note: One successful gmin step
Trying gmin =   1.0582E-07 Warning: Further gmin increment
Trying gmin =   1.1662E-07 Note: One successful gmin step
Trying gmin =   1.1109E-07 Warning: Further gmin increment
Trying gmin =   1.1521E-07 Note: One successful gmin step
Trying gmin =   1.1313E-07 Warning: Further gmin increment
Trying gmin =   1.1469E-07 Warning: Further gmin increment
Trying gmin =   1.1508E-07 Note: One successful gmin step
Trying gmin =   1.1489E-07 Note: One successful gmin step
Trying gmin =   1.1459E-07 Warning: Further gmin increment
Trying gmin =   1.1481E-07 Note: One successful gmin step
Trying gmin =   1.1470E-07 Warning: Further gmin increment
Trying gmin =   1.1478E-07 Warning: Further gmin increment
Trying gmin =   1.1481E-07 Note: One successful gmin step
Trying gmin =   1.1480E-07 Warning: Further gmin increment
Trying gmin =   1.1480E-07 Note: One successful gmin step
Trying gmin =   1.1480E-07 Warning: Last gmin step failed
Note: True gmin stepping completed
 Reference value :  2.80000e+00Note: Starting true gmin stepping
Trying gmin =   1.0000E-03 Note: One successful gmin step
Trying gmin =   1.0000E-04 Note: One successful gmin step
Trying gmin =   1.0000E-05 Note: One successful gmin step
Trying gmin =   1.0000E-06 Note: One successful gmin step
Trying gmin =   1.0000E-07 Note: One successful gmin step
Trying gmin =   1.0000E-08 Note: One successful gmin step
Trying gmin =   1.0000E-09 Note: One successful gmin step
Trying gmin =   1.0000E-10 Note: One successful gmin step
Trying gmin =   1.0000E-11 Warning: Further gmin increment
Trying gmin =   5.6234E-11 Note: One successful gmin step
Trying gmin =   2.3714E-11 Note: One successful gmin step
Trying gmin =   1.0000E-11 Note: One successful gmin step
Trying gmin =   2.7384E-12 Warning: Further gmin increment
Trying gmin =   7.2339E-12 Note: One successful gmin step
Trying gmin =   4.4508E-12 Note: One successful gmin step
Trying gmin =   2.1480E-12 Warning: Further gmin increment
Trying gmin =   3.7097E-12 Note: One successful gmin step
Trying gmin =   2.8228E-12 Note: One successful gmin step
Trying gmin =   1.8737E-12 Note: One successful gmin step
Trying gmin =   1.0133E-12 Note: One successful gmin step
Trying gmin =   1.0000E-12 Note: One successful gmin step
Note: True gmin stepping completed
 Reference value :  1.20000e+00Note: Starting true gmin stepping
Trying gmin =   1.0000E-03 Note: One successful gmin step
Trying gmin =   1.0000E-04 Note: One successful gmin step
Trying gmin =   1.0000E-05 Note: One successful gmin step
Trying gmin =   1.0000E-06 Note: One successful gmin step
Trying gmin =   1.0000E-07 Note: One successful gmin step
Trying gmin =   1.0000E-08 Note: One successful gmin step
Trying gmin =   1.0000E-09 Note: One successful gmin step
Trying gmin =   1.0000E-10 Note: One successful gmin step
Trying gmin =   1.0000E-11 Warning: Further gmin increment
Trying gmin =   5.6234E-11 Note: One successful gmin step
Trying gmin =   2.3714E-11 Note: One successful gmin step
Trying gmin =   6.4938E-12 Note: One successful gmin step
Trying gmin =   1.7783E-12 Note: One successful gmin step
Trying gmin =   1.0000E-12 Note: One successful gmin step
Note: True gmin stepping completed
 Reference value :  4.00000e-02pm                  =  2.917399e+00
Doing analysis at TEMP = 0.000000 and TNOM = 27.000000


No. of Data Rows : 91
psrr100             =  -6.093055e+01
psrr100k            =  -2.511294e+01
Doing analysis at TEMP = 0.000000 and TNOM = 27.000000


No. of Data Rows : 86
temp_coeff = 1.038545e+02
Doing analysis at TEMP = 0.000000 and TNOM = 27.000000


No. of Data Rows : 141
vldo_sup_2          =  1.792860e+00
vldo_sup_2_8        =  1.791673e+00
line_reg = 1.483750e-03
Note: No ".plot", ".print", or ".fourier" lines; no simulations run
vin                 =  1.894198e+00
dropout = 1.301980e-01
