 Reference value :  0.00000e+00
No compatibility mode selected!


Circuit: * ldo netlist 

Doing analysis at TEMP = 27.000000 and TNOM = 27.000000


No. of Data Rows : 1
bg_out = 1.192541e+00
inn = 1.222444e+00
inp = 1.222411e+00
l1#branch = -5.55112e-17
ldo_out = 1.793329e+00
m.xm1.msky130_fd_pr__nfet_g5v0d10v5#body = 1.773928e-11
m.xm1.msky130_fd_pr__nfet_g5v0d10v5#dbody = 3.833639e-11
m.xm1.msky130_fd_pr__nfet_g5v0d10v5#sbody = 1.488144e-11
m.xm2.msky130_fd_pr__pfet_g5v0d10v5#body = 2.300000e+00
m.xm2.msky130_fd_pr__pfet_g5v0d10v5#dbody = 2.300000e+00
m.xm2.msky130_fd_pr__pfet_g5v0d10v5#sbody = 2.300000e+00
m.xm3.msky130_fd_pr__pfet_g5v0d10v5#body = 2.300000e+00
m.xm3.msky130_fd_pr__pfet_g5v0d10v5#dbody = 2.300000e+00
m.xm3.msky130_fd_pr__pfet_g5v0d10v5#sbody = 2.300000e+00
m.xm4.msky130_fd_pr__pfet_g5v0d10v5#body = 2.300000e+00
m.xm4.msky130_fd_pr__pfet_g5v0d10v5#dbody = 2.300000e+00
m.xm4.msky130_fd_pr__pfet_g5v0d10v5#sbody = 2.300000e+00
m.xm5.msky130_fd_pr__pfet_g5v0d10v5#body = 2.300000e+00
m.xm5.msky130_fd_pr__pfet_g5v0d10v5#dbody = 2.300000e+00
m.xm5.msky130_fd_pr__pfet_g5v0d10v5#sbody = 2.300000e+00
m.xm6.msky130_fd_pr__nfet_g5v0d10v5#body = 1.236024e-11
m.xm6.msky130_fd_pr__nfet_g5v0d10v5#dbody = 3.090058e-11
m.xm6.msky130_fd_pr__nfet_g5v0d10v5#sbody = 6.180122e-12
m.xm7.msky130_fd_pr__pfet_g5v0d10v5#body = 2.300000e+00
m.xm7.msky130_fd_pr__pfet_g5v0d10v5#dbody = 2.300000e+00
m.xm7.msky130_fd_pr__pfet_g5v0d10v5#sbody = 2.300000e+00
m.xm8.msky130_fd_pr__pfet_g5v0d10v5#body = 2.300000e+00
m.xm8.msky130_fd_pr__pfet_g5v0d10v5#dbody = 2.300000e+00
m.xm8.msky130_fd_pr__pfet_g5v0d10v5#sbody = 2.300000e+00
m.xm9.msky130_fd_pr__nfet_g5v0d10v5#body = 1.841001e-11
m.xm9.msky130_fd_pr__nfet_g5v0d10v5#dbody = 4.092941e-11
m.xm9.msky130_fd_pr__nfet_g5v0d10v5#sbody = 1.430061e-11
m.xm10.msky130_fd_pr__nfet_g5v0d10v5#body = 1.814825e-11
m.xm10.msky130_fd_pr__nfet_g5v0d10v5#dbody = 4.027503e-11
m.xm10.msky130_fd_pr__nfet_g5v0d10v5#sbody = 1.416974e-11
m.xm11.msky130_fd_pr__pfet_g5v0d10v5#body = 2.300000e+00
m.xm11.msky130_fd_pr__pfet_g5v0d10v5#dbody = 2.300000e+00
m.xm11.msky130_fd_pr__pfet_g5v0d10v5#sbody = 2.300000e+00
m.xm12.msky130_fd_pr__pfet_g5v0d10v5#body = 2.300000e+00
m.xm12.msky130_fd_pr__pfet_g5v0d10v5#dbody = 2.300000e+00
m.xm12.msky130_fd_pr__pfet_g5v0d10v5#sbody = 2.300000e+00
m.xm13.msky130_fd_pr__nfet_g5v0d10v5#body = 2.546447e-12
m.xm13.msky130_fd_pr__nfet_g5v0d10v5#dbody = 6.366108e-12
m.xm13.msky130_fd_pr__nfet_g5v0d10v5#sbody = 1.273233e-12
m.xm14.msky130_fd_pr__pfet_g5v0d10v5#body = 2.300000e+00
m.xm14.msky130_fd_pr__pfet_g5v0d10v5#dbody = 2.300000e+00
m.xm14.msky130_fd_pr__pfet_g5v0d10v5#sbody = 2.300000e+00
m.xm15.msky130_fd_pr__nfet_g5v0d10v5#body = 6.127758e-16
m.xm15.msky130_fd_pr__nfet_g5v0d10v5#dbody = 1.531915e-15
m.xm15.msky130_fd_pr__nfet_g5v0d10v5#sbody = 3.064127e-16
m.xm16.msky130_fd_pr__nfet_g5v0d10v5#body = 4.403931e-11
m.xm16.msky130_fd_pr__nfet_g5v0d10v5#dbody = 7.952841e-11
m.xm16.msky130_fd_pr__nfet_g5v0d10v5#sbody = 5.258951e-11
m.xm17.msky130_fd_pr__pfet_g5v0d10v5#body = 2.300000e+00
m.xm17.msky130_fd_pr__pfet_g5v0d10v5#dbody = 2.300000e+00
m.xm17.msky130_fd_pr__pfet_g5v0d10v5#sbody = 2.300000e+00
m.xm18.msky130_fd_pr__nfet_g5v0d10v5#body = 2.034401e-11
m.xm18.msky130_fd_pr__nfet_g5v0d10v5#dbody = 5.071545e-11
m.xm18.msky130_fd_pr__nfet_g5v0d10v5#sbody = 1.017202e-11
m.xm19.msky130_fd_pr__nfet_g5v0d10v5#body = 1.779316e-11
m.xm19.msky130_fd_pr__nfet_g5v0d10v5#dbody = 3.847109e-11
m.xm19.msky130_fd_pr__nfet_g5v0d10v5#sbody = 1.490838e-11
m.xm20.msky130_fd_pr__nfet_g5v0d10v5#body = 1.298613e-11
m.xm20.msky130_fd_pr__nfet_g5v0d10v5#dbody = 3.246531e-11
m.xm20.msky130_fd_pr__nfet_g5v0d10v5#sbody = 6.493076e-12
m.xm22.msky130_fd_pr__nfet_g5v0d10v5#body = 3.008614e-12
m.xm22.msky130_fd_pr__nfet_g5v0d10v5#dbody = 7.521531e-12
m.xm22.msky130_fd_pr__nfet_g5v0d10v5#sbody = 1.504312e-12
m.xm24.msky130_fd_pr__pfet_g5v0d10v5#body = 2.300000e+00
m.xm24.msky130_fd_pr__pfet_g5v0d10v5#dbody = 2.300000e+00
m.xm24.msky130_fd_pr__pfet_g5v0d10v5#sbody = 2.300000e+00
m.xm26.msky130_fd_pr__pfet_g5v0d10v5#body = 2.300000e+00
m.xm26.msky130_fd_pr__pfet_g5v0d10v5#dbody = 2.300000e+00
m.xm26.msky130_fd_pr__pfet_g5v0d10v5#sbody = 2.300000e+00
mir = 1.178320e+00
net1 = 7.251266e-01
net2 = 4.714557e-05
net3 = 7.846748e-01
net4 = 2.401220e-01
net5 = 1.182630e+00
net6 = 9.882515e-01
net7 = 7.846408e-01
net8 = 1.247794e+00
net9 = 1.268735e+00
net10 = 2.035829e-01
net11 = 1.621605e+00
net12 = 1.621605e+00
net13 = 0.000000e+00
out = 1.621605e+00
pos = 1.192742e+00
q.xq2.qsky130_fd_pr__pnp_05v5_w0p68l0p68#collcx = 2.093590e-03
q.xq3.qsky130_fd_pr__pnp_05v5_w0p68l0p68#collcx = 2.636405e-04
q.xq4.qsky130_fd_pr__pnp_05v5_w0p68l0p68#collcx = 2.636405e-04
q.xq8.qsky130_fd_pr__pnp_05v5_w0p68l0p68#collcx = 2.636405e-04
q.xq10.qsky130_fd_pr__pnp_05v5_w0p68l0p68#collcx = 2.636405e-04
q.xq12.qsky130_fd_pr__pnp_05v5_w0p68l0p68#collcx = 2.636405e-04
q.xq14.qsky130_fd_pr__pnp_05v5_w0p68l0p68#collcx = 2.636405e-04
q.xq16.qsky130_fd_pr__pnp_05v5_w0p68l0p68#collcx = 2.636405e-04
q.xq18.qsky130_fd_pr__pnp_05v5_w0p68l0p68#collcx = 2.636405e-04
vb = 1.038757e+00
vdd = 2.300000e+00
vs#branch = -1.70472e-04
vt#branch = 0.000000e+00
xc1.a = 0.000000e+00
xc1.b1 = 0.000000e+00
xc3.a = 1.621605e+00
xc3.b1 = 1.621605e+00
xr1.xsky130_fd_pr__res_xhigh_po_0p69.ra = 7.921878e-01
xr2.xsky130_fd_pr__res_xhigh_po_0p69.ra = 7.922218e-01
xr3.xsky130_fd_pr__res_xhigh_po_0p69.ra = 5.108732e-03
xr4.xsky130_fd_pr__res_xhigh_po_0p69.ra = 7.276636e-01
xr5.xsky130_fd_pr__res_xhigh_po_0p69.ra = 5.108495e-03
xr6.xsky130_fd_pr__res_xhigh_po_0p69.ra = 8.022438e-03
xr7.xsky130_fd_pr__res_xhigh_po_0p69.ra = 1.621605e+00
xr8.xsky130_fd_pr__res_xhigh_po_0p69.ra = 1.206091e+00
xr9.xsky130_fd_pr__res_xhigh_po_0p69.ra = 1.399892e-02
Doing analysis at TEMP = 27.000000 and TNOM = 27.000000


No. of Data Rows : 91
Note: Starting true gmin stepping
Trying gmin =   1.0000E-03 Note: One successful gmin step
Trying gmin =   1.0000E-04 Note: One successful gmin step
Trying gmin =   1.0000E-05 Note: One successful gmin step
Trying gmin =   1.0000E-06 Note: One successful gmin step
Trying gmin =   1.0000E-07 Warning: Further gmin increment
Trying gmin =   5.6234E-07 Note: One successful gmin step
Trying gmin =   3.1623E-07 Note: One successful gmin step
Trying gmin =   1.3335E-07 Note: One successful gmin step
Trying gmin =   3.6517E-08 Warning: Further gmin increment
Trying gmin =   9.6466E-08 Warning: Further gmin increment
Trying gmin =   1.2298E-07 Note: One successful gmin step
Trying gmin =   1.0892E-07 Warning: Further gmin increment
Trying gmin =   1.1931E-07 Warning: Further gmin increment
Trying gmin =   1.2205E-07 Note: One successful gmin step
Trying gmin =   1.2067E-07 Note: One successful gmin step
Trying gmin =   1.1863E-07 Warning: Further gmin increment
Trying gmin =   1.2016E-07 Warning: Further gmin increment
Trying gmin =   1.2054E-07 Note: One successful gmin step
Trying gmin =   1.2035E-07 Warning: Further gmin increment
Trying gmin =   1.2049E-07 Note: One successful gmin step
Trying gmin =   1.2042E-07 Note: One successful gmin step
Trying gmin =   1.2031E-07 Warning: Further gmin increment
Trying gmin =   1.2039E-07 Warning: Further gmin increment
Trying gmin =   1.2042E-07 Note: One successful gmin step
Trying gmin =   1.2041E-07 Note: One successful gmin step
Trying gmin =   1.2039E-07 Warning: Further gmin increment
Trying gmin =   1.2040E-07 Warning: Last gmin step failed
Warning: True gmin stepping failed
Note: Starting dynamic gmin stepping
Trying gmin =   1.0000E-03 Note: One successful gmin step
Trying gmin =   1.0000E-04 Note: One successful gmin step
Trying gmin =   1.0000E-05 Warning: Further gmin increment
Trying gmin =   5.6234E-05 Note: One successful gmin step
Trying gmin =   2.3714E-05 Note: One successful gmin step
Trying gmin =   6.4938E-06 Warning: Further gmin increment
Trying gmin =   1.7154E-05 Note: One successful gmin step
Trying gmin =   1.0554E-05 Warning: Further gmin increment
Trying gmin =   1.5193E-05 Note: One successful gmin step
Trying gmin =   1.2663E-05 Note: One successful gmin step
Trying gmin =   9.6358E-06 Warning: Further gmin increment
Trying gmin =   1.1827E-05 Note: One successful gmin step
Trying gmin =   1.0675E-05 Warning: Further gmin increment
Trying gmin =   1.1528E-05 Note: One successful gmin step
Trying gmin =   1.1093E-05 Note: One successful gmin step
Trying gmin =   1.0472E-05 Note: One successful gmin step
Trying gmin =   9.6050E-06 Note: One successful gmin step
Trying gmin =   8.4369E-06 Note: One successful gmin step
Trying gmin =   6.9456E-06 Note: One successful gmin step
Trying gmin =   5.1881E-06 Note: One successful gmin step
Trying gmin =   3.3493E-06 Note: One successful gmin step
Trying gmin =   2.1622E-06 Note: One successful gmin step
Trying gmin =   1.1215E-06 Warning: Further gmin increment
Trying gmin =   1.8349E-06 Note: One successful gmin step
Trying gmin =   1.4345E-06 Warning: Further gmin increment
Trying gmin =   1.7254E-06 Warning: Further gmin increment
Trying gmin =   1.8069E-06 Note: One successful gmin step
Trying gmin =   1.7657E-06 Note: One successful gmin step
Trying gmin =   1.7056E-06 Warning: Further gmin increment
Trying gmin =   1.7505E-06 Note: One successful gmin step
Trying gmin =   1.7354E-06 Note: One successful gmin step
Trying gmin =   1.7130E-06 Note: One successful gmin step
Trying gmin =   1.6800E-06 Note: One successful gmin step
Trying gmin =   1.6316E-06 Note: One successful gmin step
Trying gmin =   1.5617E-06 Note: One successful gmin step
Trying gmin =   1.4623E-06 Note: One successful gmin step
Trying gmin =   1.3251E-06 Note: One successful gmin step
Trying gmin =   1.1429E-06 Note: One successful gmin step
Trying gmin =   9.1558E-07 Note: One successful gmin step
Trying gmin =   6.5646E-07 Note: One successful gmin step
Trying gmin =   3.9854E-07 Note: One successful gmin step
Trying gmin =   1.8853E-07 Note: One successful gmin step
Trying gmin =   6.1338E-08 Note: One successful gmin step
Trying gmin =   1.1383E-08 Note: One successful gmin step
Trying gmin =   1.1383E-09 Note: One successful gmin step
Trying gmin =   1.1383E-10 Note: One successful gmin step
Trying gmin =   1.1383E-11 Note: One successful gmin step
Trying gmin =   1.1383E-12 Note: One successful gmin step
Trying gmin =   1.0000E-12 Note: One successful gmin step
Note: Dynamic gmin stepping completed
 Reference value :  2.80000e+00Note: Starting true gmin stepping
Trying gmin =   1.0000E-03 Note: One successful gmin step
Trying gmin =   1.0000E-04 Note: One successful gmin step
Trying gmin =   1.0000E-05 Note: One successful gmin step
Trying gmin =   1.0000E-06 Note: One successful gmin step
Trying gmin =   1.0000E-07 Note: One successful gmin step
Trying gmin =   1.0000E-08 Warning: Further gmin increment
Trying gmin =   5.6234E-08 Note: One successful gmin step
Trying gmin =   2.3714E-08 Note: One successful gmin step
Trying gmin =   6.4938E-09 Note: One successful gmin step
Trying gmin =   9.3057E-10 Note: One successful gmin step
Trying gmin =   9.3057E-11 Note: One successful gmin step
Trying gmin =   9.3057E-12 Warning: Further gmin increment
Trying gmin =   5.2330E-11 Note: One successful gmin step
Trying gmin =   2.2067E-11 Warning: Further gmin increment
Trying gmin =   4.2170E-11 Note: One successful gmin step
Trying gmin =   3.0505E-11 Note: One successful gmin step
Trying gmin =   1.8769E-11 Note: One successful gmin step
Trying gmin =   9.0580E-12 Note: One successful gmin step
Trying gmin =   3.0368E-12 Note: One successful gmin step
Trying gmin =   1.0000E-12 Note: One successful gmin step
Note: True gmin stepping completed
 Reference value :  1.18000e+00Note: Starting true gmin stepping
Trying gmin =   1.0000E-03 Note: One successful gmin step
Trying gmin =   1.0000E-04 Note: One successful gmin step
Trying gmin =   1.0000E-05 Note: One successful gmin step
Trying gmin =   1.0000E-06 Note: One successful gmin step
Trying gmin =   1.0000E-07 Note: One successful gmin step
Trying gmin =   1.0000E-08 Note: One successful gmin step
Trying gmin =   3.1623E-09 Note: One successful gmin step
Trying gmin =   5.6234E-10 Note: One successful gmin step
Trying gmin =   5.6234E-11 Note: One successful gmin step
Trying gmin =   5.6234E-12 Warning: Further gmin increment
Trying gmin =   3.1623E-11 Note: One successful gmin step
Trying gmin =   1.3335E-11 Warning: Further gmin increment
Trying gmin =   2.5483E-11 Note: One successful gmin step
Trying gmin =   1.8434E-11 Note: One successful gmin step
Trying gmin =   1.1342E-11 Warning: Further gmin increment
Trying gmin =   1.6326E-11 Note: One successful gmin step
Trying gmin =   1.3608E-11 Note: One successful gmin step
Trying gmin =   1.0355E-11 Note: One successful gmin step
Trying gmin =   6.8732E-12 Note: One successful gmin step
Trying gmin =   3.7170E-12 Note: One successful gmin step
Trying gmin =   1.4782E-12 Note: One successful gmin step
Trying gmin =   1.0000E-12 Note: One successful gmin step
Note: True gmin stepping completed
 Reference value :  9.40000e-01pm                  =  5.504976e+01
Doing analysis at TEMP = 27.000000 and TNOM = 27.000000


No. of Data Rows : 91
psrr100             =  -7.945121e+01
psrr100k            =  -2.735853e+01
Doing analysis at TEMP = 27.000000 and TNOM = 27.000000


No. of Data Rows : 86
temp_coeff = 9.638248e+01
Doing analysis at TEMP = 27.000000 and TNOM = 27.000000


No. of Data Rows : 141
vldo_sup_2          =  1.793373e+00
vldo_sup_2_8        =  1.793315e+00
line_reg = 7.250000e-05
Note: No ".plot", ".print", or ".fourier" lines; no simulations run
vin                 =  1.764101e+00
dropout = 1.010000e-04
