 Reference value :  0.00000e+00
No compatibility mode selected!


Circuit: * ldo netlist 

Doing analysis at TEMP = 27.000000 and TNOM = 27.000000


No. of Data Rows : 1
bg_out = 1.194136e+00
inn = 1.224908e+00
inp = 1.224887e+00
l1#branch = 3.469447e-18
ldo_out = 1.796105e+00
m.xm1.msky130_fd_pr__nfet_g5v0d10v5#body = 1.657925e-11
m.xm1.msky130_fd_pr__nfet_g5v0d10v5#dbody = 3.293390e-11
m.xm1.msky130_fd_pr__nfet_g5v0d10v5#sbody = 1.680386e-11
m.xm2.msky130_fd_pr__pfet_g5v0d10v5#body = 2.300000e+00
m.xm2.msky130_fd_pr__pfet_g5v0d10v5#dbody = 2.300000e+00
m.xm2.msky130_fd_pr__pfet_g5v0d10v5#sbody = 2.300000e+00
m.xm3.msky130_fd_pr__pfet_g5v0d10v5#body = 2.300000e+00
m.xm3.msky130_fd_pr__pfet_g5v0d10v5#dbody = 2.300000e+00
m.xm3.msky130_fd_pr__pfet_g5v0d10v5#sbody = 2.300000e+00
m.xm4.msky130_fd_pr__pfet_g5v0d10v5#body = 2.300000e+00
m.xm4.msky130_fd_pr__pfet_g5v0d10v5#dbody = 2.300000e+00
m.xm4.msky130_fd_pr__pfet_g5v0d10v5#sbody = 2.300000e+00
m.xm5.msky130_fd_pr__pfet_g5v0d10v5#body = 2.300000e+00
m.xm5.msky130_fd_pr__pfet_g5v0d10v5#dbody = 2.300000e+00
m.xm5.msky130_fd_pr__pfet_g5v0d10v5#sbody = 2.300000e+00
m.xm6.msky130_fd_pr__nfet_g5v0d10v5#body = 1.111768e-11
m.xm6.msky130_fd_pr__nfet_g5v0d10v5#dbody = 2.779419e-11
m.xm6.msky130_fd_pr__nfet_g5v0d10v5#sbody = 5.558844e-12
m.xm7.msky130_fd_pr__pfet_g5v0d10v5#body = 2.300000e+00
m.xm7.msky130_fd_pr__pfet_g5v0d10v5#dbody = 2.300000e+00
m.xm7.msky130_fd_pr__pfet_g5v0d10v5#sbody = 2.300000e+00
m.xm8.msky130_fd_pr__pfet_g5v0d10v5#body = 2.300000e+00
m.xm8.msky130_fd_pr__pfet_g5v0d10v5#dbody = 2.300000e+00
m.xm8.msky130_fd_pr__pfet_g5v0d10v5#sbody = 2.300000e+00
m.xm9.msky130_fd_pr__nfet_g5v0d10v5#body = 1.725512e-11
m.xm9.msky130_fd_pr__nfet_g5v0d10v5#dbody = 3.550064e-11
m.xm9.msky130_fd_pr__nfet_g5v0d10v5#sbody = 1.626473e-11
m.xm10.msky130_fd_pr__nfet_g5v0d10v5#body = 1.719827e-11
m.xm10.msky130_fd_pr__nfet_g5v0d10v5#dbody = 3.535851e-11
m.xm10.msky130_fd_pr__nfet_g5v0d10v5#sbody = 1.623630e-11
m.xm11.msky130_fd_pr__pfet_g5v0d10v5#body = 2.300000e+00
m.xm11.msky130_fd_pr__pfet_g5v0d10v5#dbody = 2.300000e+00
m.xm11.msky130_fd_pr__pfet_g5v0d10v5#sbody = 2.300000e+00
m.xm12.msky130_fd_pr__pfet_g5v0d10v5#body = 2.300000e+00
m.xm12.msky130_fd_pr__pfet_g5v0d10v5#dbody = 2.300000e+00
m.xm12.msky130_fd_pr__pfet_g5v0d10v5#sbody = 2.300000e+00
m.xm13.msky130_fd_pr__nfet_g5v0d10v5#body = 3.817225e-12
m.xm13.msky130_fd_pr__nfet_g5v0d10v5#dbody = 9.543052e-12
m.xm13.msky130_fd_pr__nfet_g5v0d10v5#sbody = 1.908624e-12
m.xm14.msky130_fd_pr__pfet_g5v0d10v5#body = 2.300000e+00
m.xm14.msky130_fd_pr__pfet_g5v0d10v5#dbody = 2.300000e+00
m.xm14.msky130_fd_pr__pfet_g5v0d10v5#sbody = 2.300000e+00
m.xm15.msky130_fd_pr__nfet_g5v0d10v5#body = 4.424374e-17
m.xm15.msky130_fd_pr__nfet_g5v0d10v5#dbody = 1.106051e-16
m.xm15.msky130_fd_pr__nfet_g5v0d10v5#sbody = 2.212612e-17
m.xm16.msky130_fd_pr__nfet_g5v0d10v5#body = 4.406999e-11
m.xm16.msky130_fd_pr__nfet_g5v0d10v5#dbody = 7.954362e-11
m.xm16.msky130_fd_pr__nfet_g5v0d10v5#sbody = 5.266633e-11
m.xm17.msky130_fd_pr__pfet_g5v0d10v5#body = 2.300000e+00
m.xm17.msky130_fd_pr__pfet_g5v0d10v5#dbody = 2.300000e+00
m.xm17.msky130_fd_pr__pfet_g5v0d10v5#sbody = 2.300000e+00
m.xm18.msky130_fd_pr__nfet_g5v0d10v5#body = 8.020820e-12
m.xm18.msky130_fd_pr__nfet_g5v0d10v5#dbody = 2.005204e-11
m.xm18.msky130_fd_pr__nfet_g5v0d10v5#sbody = 4.010422e-12
m.xm19.msky130_fd_pr__nfet_g5v0d10v5#body = 1.660866e-11
m.xm19.msky130_fd_pr__nfet_g5v0d10v5#dbody = 3.300741e-11
m.xm19.msky130_fd_pr__nfet_g5v0d10v5#sbody = 1.681856e-11
m.xm20.msky130_fd_pr__nfet_g5v0d10v5#body = 1.103403e-11
m.xm20.msky130_fd_pr__nfet_g5v0d10v5#dbody = 2.758505e-11
m.xm20.msky130_fd_pr__nfet_g5v0d10v5#sbody = 5.517026e-12
m.xm22.msky130_fd_pr__nfet_g5v0d10v5#body = 4.259829e-12
m.xm22.msky130_fd_pr__nfet_g5v0d10v5#dbody = 1.064957e-11
m.xm22.msky130_fd_pr__nfet_g5v0d10v5#sbody = 2.129919e-12
m.xm24.msky130_fd_pr__pfet_g5v0d10v5#body = 2.300000e+00
m.xm24.msky130_fd_pr__pfet_g5v0d10v5#dbody = 2.300000e+00
m.xm24.msky130_fd_pr__pfet_g5v0d10v5#sbody = 2.300000e+00
m.xm26.msky130_fd_pr__pfet_g5v0d10v5#body = 2.300000e+00
m.xm26.msky130_fd_pr__pfet_g5v0d10v5#dbody = 2.300000e+00
m.xm26.msky130_fd_pr__pfet_g5v0d10v5#sbody = 2.300000e+00
mir = 9.854258e-01
net1 = 7.262777e-01
net2 = 3.404483e-06
net3 = 7.859793e-01
net4 = 3.402240e-01
net5 = 9.877780e-01
net6 = 8.888518e-01
net7 = 7.859569e-01
net8 = 1.070138e+00
net9 = 1.074686e+00
net10 = 3.052499e-01
net11 = 6.415374e-01
net12 = 6.415374e-01
net13 = 0.000000e+00
out = 6.415374e-01
pos = 1.194184e+00
q.xq2.qsky130_fd_pr__pnp_05v5_w0p68l0p68#collcx = 2.182201e-03
q.xq3.qsky130_fd_pr__pnp_05v5_w0p68l0p68#collcx = 2.748931e-04
q.xq4.qsky130_fd_pr__pnp_05v5_w0p68l0p68#collcx = 2.748931e-04
q.xq8.qsky130_fd_pr__pnp_05v5_w0p68l0p68#collcx = 2.748931e-04
q.xq10.qsky130_fd_pr__pnp_05v5_w0p68l0p68#collcx = 2.748931e-04
q.xq12.qsky130_fd_pr__pnp_05v5_w0p68l0p68#collcx = 2.748931e-04
q.xq14.qsky130_fd_pr__pnp_05v5_w0p68l0p68#collcx = 2.748931e-04
q.xq16.qsky130_fd_pr__pnp_05v5_w0p68l0p68#collcx = 2.748931e-04
q.xq18.qsky130_fd_pr__pnp_05v5_w0p68l0p68#collcx = 2.748931e-04
vb = 8.825939e-01
vdd = 2.300000e+00
vs#branch = -9.99094e-02
vt#branch = 0.000000e+00
xc1.a = 0.000000e+00
xc1.b1 = 0.000000e+00
xc3.a = 6.415374e-01
xc3.b1 = 6.415374e-01
xr1.xsky130_fd_pr__res_xhigh_po_0p69.ra = 7.912829e-01
xr2.xsky130_fd_pr__res_xhigh_po_0p69.ra = 7.913052e-01
xr3.xsky130_fd_pr__res_xhigh_po_0p69.ra = 3.606159e-03
xr4.xsky130_fd_pr__res_xhigh_po_0p69.ra = 7.280671e-01
xr5.xsky130_fd_pr__res_xhigh_po_0p69.ra = 3.606050e-03
xr6.xsky130_fd_pr__res_xhigh_po_0p69.ra = 5.661457e-03
xr7.xsky130_fd_pr__res_xhigh_po_0p69.ra = 6.415374e-01
xr8.xsky130_fd_pr__res_xhigh_po_0p69.ra = 1.203598e+00
xr9.xsky130_fd_pr__res_xhigh_po_0p69.ra = 9.872880e-03
Doing analysis at TEMP = 27.000000 and TNOM = 27.000000


No. of Data Rows : 91
Note: Starting true gmin stepping
Trying gmin =   1.0000E-03 Note: One successful gmin step
Trying gmin =   1.0000E-04 Note: One successful gmin step
Trying gmin =   1.0000E-05 Note: One successful gmin step
Trying gmin =   1.0000E-06 Note: One successful gmin step
Trying gmin =   1.0000E-07 Note: One successful gmin step
Trying gmin =   1.0000E-08 Note: One successful gmin step
Trying gmin =   3.1623E-09 Note: One successful gmin step
Trying gmin =   5.6234E-10 Note: One successful gmin step
Trying gmin =   5.6234E-11 Note: One successful gmin step
Trying gmin =   5.6234E-12 Note: One successful gmin step
Trying gmin =   1.0000E-12 Note: One successful gmin step
Note: True gmin stepping completed
 Reference value :  1.38000e+00pm                  =  1.270369e+02
Doing analysis at TEMP = 27.000000 and TNOM = 27.000000


No. of Data Rows : 91
psrr100             =  -6.964998e+01
psrr100k            =  -2.503881e+01
Doing analysis at TEMP = 27.000000 and TNOM = 27.000000


No. of Data Rows : 86
temp_coeff = 1.352380e+02
Doing analysis at TEMP = 27.000000 and TNOM = 27.000000


No. of Data Rows : 141
vldo_sup_2          =  1.790411e+00
vldo_sup_2_8        =  1.796154e+00
line_reg = 7.178750e-03
Note: No ".plot", ".print", or ".fourier" lines; no simulations run
vin                 =  1.976016e+00
dropout = 2.120160e-01
