 Reference value :  0.00000e+00
No compatibility mode selected!


Circuit: * ldo netlist 

Doing analysis at TEMP = 27.000000 and TNOM = 27.000000


No. of Data Rows : 1
bg_out = 1.194082e+00
inn = 1.224844e+00
inp = 1.224809e+00
l1#branch = 6.938894e-18
ldo_out = 1.796134e+00
m.xm1.msky130_fd_pr__nfet_g5v0d10v5#body = 1.767472e-11
m.xm1.msky130_fd_pr__nfet_g5v0d10v5#dbody = 3.817449e-11
m.xm1.msky130_fd_pr__nfet_g5v0d10v5#sbody = 1.484965e-11
m.xm2.msky130_fd_pr__pfet_g5v0d10v5#body = 2.300000e+00
m.xm2.msky130_fd_pr__pfet_g5v0d10v5#dbody = 2.300000e+00
m.xm2.msky130_fd_pr__pfet_g5v0d10v5#sbody = 2.300000e+00
m.xm3.msky130_fd_pr__pfet_g5v0d10v5#body = 2.300000e+00
m.xm3.msky130_fd_pr__pfet_g5v0d10v5#dbody = 2.300000e+00
m.xm3.msky130_fd_pr__pfet_g5v0d10v5#sbody = 2.300000e+00
m.xm4.msky130_fd_pr__pfet_g5v0d10v5#body = 2.300000e+00
m.xm4.msky130_fd_pr__pfet_g5v0d10v5#dbody = 2.300000e+00
m.xm4.msky130_fd_pr__pfet_g5v0d10v5#sbody = 2.300000e+00
m.xm5.msky130_fd_pr__pfet_g5v0d10v5#body = 2.300000e+00
m.xm5.msky130_fd_pr__pfet_g5v0d10v5#dbody = 2.300000e+00
m.xm5.msky130_fd_pr__pfet_g5v0d10v5#sbody = 2.300000e+00
m.xm6.msky130_fd_pr__nfet_g5v0d10v5#body = 1.240933e-11
m.xm6.msky130_fd_pr__nfet_g5v0d10v5#dbody = 3.102332e-11
m.xm6.msky130_fd_pr__nfet_g5v0d10v5#sbody = 6.204670e-12
m.xm7.msky130_fd_pr__pfet_g5v0d10v5#body = 2.300000e+00
m.xm7.msky130_fd_pr__pfet_g5v0d10v5#dbody = 2.300000e+00
m.xm7.msky130_fd_pr__pfet_g5v0d10v5#sbody = 2.300000e+00
m.xm8.msky130_fd_pr__pfet_g5v0d10v5#body = 2.300000e+00
m.xm8.msky130_fd_pr__pfet_g5v0d10v5#dbody = 2.300000e+00
m.xm8.msky130_fd_pr__pfet_g5v0d10v5#sbody = 2.300000e+00
m.xm9.msky130_fd_pr__nfet_g5v0d10v5#body = 1.836018e-11
m.xm9.msky130_fd_pr__nfet_g5v0d10v5#dbody = 4.082040e-11
m.xm9.msky130_fd_pr__nfet_g5v0d10v5#sbody = 1.426015e-11
m.xm10.msky130_fd_pr__nfet_g5v0d10v5#body = 1.820276e-11
m.xm10.msky130_fd_pr__nfet_g5v0d10v5#dbody = 4.042685e-11
m.xm10.msky130_fd_pr__nfet_g5v0d10v5#sbody = 1.418144e-11
m.xm11.msky130_fd_pr__pfet_g5v0d10v5#body = 2.300000e+00
m.xm11.msky130_fd_pr__pfet_g5v0d10v5#dbody = 2.300000e+00
m.xm11.msky130_fd_pr__pfet_g5v0d10v5#sbody = 2.300000e+00
m.xm12.msky130_fd_pr__pfet_g5v0d10v5#body = 2.300000e+00
m.xm12.msky130_fd_pr__pfet_g5v0d10v5#dbody = 2.300000e+00
m.xm12.msky130_fd_pr__pfet_g5v0d10v5#sbody = 2.300000e+00
m.xm13.msky130_fd_pr__nfet_g5v0d10v5#body = 2.538674e-12
m.xm13.msky130_fd_pr__nfet_g5v0d10v5#dbody = 6.346674e-12
m.xm13.msky130_fd_pr__nfet_g5v0d10v5#sbody = 1.269347e-12
m.xm14.msky130_fd_pr__pfet_g5v0d10v5#body = 2.300000e+00
m.xm14.msky130_fd_pr__pfet_g5v0d10v5#dbody = 2.300000e+00
m.xm14.msky130_fd_pr__pfet_g5v0d10v5#sbody = 2.300000e+00
m.xm15.msky130_fd_pr__nfet_g5v0d10v5#body = 6.024441e-16
m.xm15.msky130_fd_pr__nfet_g5v0d10v5#dbody = 1.506086e-15
m.xm15.msky130_fd_pr__nfet_g5v0d10v5#sbody = 3.012466e-16
m.xm16.msky130_fd_pr__nfet_g5v0d10v5#body = 4.406930e-11
m.xm16.msky130_fd_pr__nfet_g5v0d10v5#dbody = 7.954340e-11
m.xm16.msky130_fd_pr__nfet_g5v0d10v5#sbody = 5.266449e-11
m.xm17.msky130_fd_pr__pfet_g5v0d10v5#body = 2.300000e+00
m.xm17.msky130_fd_pr__pfet_g5v0d10v5#dbody = 2.300000e+00
m.xm17.msky130_fd_pr__pfet_g5v0d10v5#sbody = 2.300000e+00
m.xm18.msky130_fd_pr__nfet_g5v0d10v5#body = 1.178233e-11
m.xm18.msky130_fd_pr__nfet_g5v0d10v5#dbody = 2.945581e-11
m.xm18.msky130_fd_pr__nfet_g5v0d10v5#sbody = 5.891177e-12
m.xm19.msky130_fd_pr__nfet_g5v0d10v5#body = 1.773164e-11
m.xm19.msky130_fd_pr__nfet_g5v0d10v5#dbody = 3.831680e-11
m.xm19.msky130_fd_pr__nfet_g5v0d10v5#sbody = 1.487811e-11
m.xm20.msky130_fd_pr__nfet_g5v0d10v5#body = 1.303912e-11
m.xm20.msky130_fd_pr__nfet_g5v0d10v5#dbody = 3.259777e-11
m.xm20.msky130_fd_pr__nfet_g5v0d10v5#sbody = 6.519570e-12
m.xm22.msky130_fd_pr__nfet_g5v0d10v5#body = 3.008860e-12
m.xm22.msky130_fd_pr__nfet_g5v0d10v5#dbody = 7.522145e-12
m.xm22.msky130_fd_pr__nfet_g5v0d10v5#sbody = 1.504435e-12
m.xm24.msky130_fd_pr__pfet_g5v0d10v5#body = 2.300000e+00
m.xm24.msky130_fd_pr__pfet_g5v0d10v5#dbody = 2.300000e+00
m.xm24.msky130_fd_pr__pfet_g5v0d10v5#sbody = 2.300000e+00
m.xm26.msky130_fd_pr__pfet_g5v0d10v5#body = 2.300000e+00
m.xm26.msky130_fd_pr__pfet_g5v0d10v5#dbody = 2.300000e+00
m.xm26.msky130_fd_pr__pfet_g5v0d10v5#sbody = 2.300000e+00
mir = 1.173135e+00
net1 = 7.262647e-01
net2 = 4.635065e-05
net3 = 7.859644e-01
net4 = 2.401417e-01
net5 = 1.177689e+00
net6 = 9.921791e-01
net7 = 7.859284e-01
net8 = 1.252777e+00
net9 = 1.265371e+00
net10 = 2.029610e-01
net11 = 9.424533e-01
net12 = 9.424533e-01
net13 = 0.000000e+00
out = 9.424533e-01
pos = 1.194203e+00
q.xq2.qsky130_fd_pr__pnp_05v5_w0p68l0p68#collcx = 2.181550e-03
q.xq3.qsky130_fd_pr__pnp_05v5_w0p68l0p68#collcx = 2.748211e-04
q.xq4.qsky130_fd_pr__pnp_05v5_w0p68l0p68#collcx = 2.748211e-04
q.xq8.qsky130_fd_pr__pnp_05v5_w0p68l0p68#collcx = 2.748211e-04
q.xq10.qsky130_fd_pr__pnp_05v5_w0p68l0p68#collcx = 2.748211e-04
q.xq12.qsky130_fd_pr__pnp_05v5_w0p68l0p68#collcx = 2.748211e-04
q.xq14.qsky130_fd_pr__pnp_05v5_w0p68l0p68#collcx = 2.748211e-04
q.xq16.qsky130_fd_pr__pnp_05v5_w0p68l0p68#collcx = 2.748211e-04
q.xq18.qsky130_fd_pr__pnp_05v5_w0p68l0p68#collcx = 2.748211e-04
vb = 1.042996e+00
vdd = 2.300000e+00
vs#branch = -9.99101e-02
vt#branch = 0.000000e+00
xc1.a = 0.000000e+00
xc1.b1 = 0.000000e+00
xc3.a = 9.424533e-01
xc3.b1 = 9.424533e-01
xr1.xsky130_fd_pr__res_xhigh_po_0p69.ra = 7.912537e-01
xr2.xsky130_fd_pr__res_xhigh_po_0p69.ra = 7.912898e-01
xr3.xsky130_fd_pr__res_xhigh_po_0p69.ra = 3.606087e-03
xr4.xsky130_fd_pr__res_xhigh_po_0p69.ra = 7.280537e-01
xr5.xsky130_fd_pr__res_xhigh_po_0p69.ra = 3.605910e-03
xr6.xsky130_fd_pr__res_xhigh_po_0p69.ra = 5.661199e-03
xr7.xsky130_fd_pr__res_xhigh_po_0p69.ra = 9.424533e-01
xr8.xsky130_fd_pr__res_xhigh_po_0p69.ra = 1.203618e+00
xr9.xsky130_fd_pr__res_xhigh_po_0p69.ra = 9.873090e-03
Doing analysis at TEMP = 27.000000 and TNOM = 27.000000


No. of Data Rows : 91
Note: Starting true gmin stepping
Trying gmin =   1.0000E-03 Note: One successful gmin step
Trying gmin =   1.0000E-04 Note: One successful gmin step
Trying gmin =   1.0000E-05 Note: One successful gmin step
Trying gmin =   1.0000E-06 Warning: Further gmin increment
Trying gmin =   5.6234E-06 Note: One successful gmin step
Trying gmin =   2.3714E-06 Note: One successful gmin step
Trying gmin =   6.4938E-07 Warning: Further gmin increment
Trying gmin =   1.7154E-06 Warning: Further gmin increment
Trying gmin =   2.1870E-06 Note: One successful gmin step
Trying gmin =   1.9369E-06 Note: One successful gmin step
Trying gmin =   1.6144E-06 Note: One successful gmin step
Trying gmin =   1.2284E-06 Note: One successful gmin step
Trying gmin =   8.1541E-07 Note: One successful gmin step
Trying gmin =   4.4097E-07 Note: One successful gmin step
Trying gmin =   1.7537E-07 Note: One successful gmin step
Trying gmin =   4.3983E-08 Warning: Further gmin increment
Trying gmin =   1.2410E-07 Warning: Further gmin increment
Trying gmin =   1.6085E-07 Note: One successful gmin step
Trying gmin =   1.4129E-07 Note: One successful gmin step
Trying gmin =   1.1631E-07 Warning: Further gmin increment
Trying gmin =   1.3458E-07 Note: One successful gmin step
Trying gmin =   1.2511E-07 Warning: Further gmin increment
Trying gmin =   1.3215E-07 Note: One successful gmin step
Trying gmin =   1.2858E-07 Note: One successful gmin step
Trying gmin =   1.2342E-07 Warning: Further gmin increment
Trying gmin =   1.2727E-07 Note: One successful gmin step
Trying gmin =   1.2533E-07 Warning: Further gmin increment
Trying gmin =   1.2678E-07 Warning: Further gmin increment
Trying gmin =   1.2715E-07 Note: One successful gmin step
Trying gmin =   1.2697E-07 Note: One successful gmin step
Trying gmin =   1.2669E-07 Warning: Further gmin increment
Trying gmin =   1.2690E-07 Note: One successful gmin step
Trying gmin =   1.2679E-07 Warning: Further gmin increment
Trying gmin =   1.2687E-07 Note: One successful gmin step
Trying gmin =   1.2683E-07 Note: One successful gmin step
Trying gmin =   1.2678E-07 Warning: Further gmin increment
Trying gmin =   1.2682E-07 Warning: Further gmin increment
Trying gmin =   1.2683E-07 Note: One successful gmin step
Trying gmin =   1.2682E-07 Note: One successful gmin step
Trying gmin =   1.2682E-07 Warning: Further gmin increment
Trying gmin =   1.2682E-07 Warning: Last gmin step failed
Warning: True gmin stepping failed
Note: Starting dynamic gmin stepping
Trying gmin =   1.0000E-03 Note: One successful gmin step
Trying gmin =   1.0000E-04 Note: One successful gmin step
Trying gmin =   1.0000E-05 Note: One successful gmin step
Trying gmin =   1.0000E-06 Warning: Further gmin increment
Trying gmin =   5.6234E-06 Note: One successful gmin step
Trying gmin =   2.3714E-06 Note: One successful gmin step
Trying gmin =   1.0000E-06 Note: One successful gmin step
Trying gmin =   2.7384E-07 Warning: Further gmin increment
Trying gmin =   7.2339E-07 Note: One successful gmin step
Trying gmin =   4.4508E-07 Warning: Further gmin increment
Trying gmin =   6.4068E-07 Note: One successful gmin step
Trying gmin =   5.3400E-07 Warning: Further gmin increment
Trying gmin =   6.1216E-07 Note: One successful gmin step
Trying gmin =   5.7174E-07 Warning: Further gmin increment
Trying gmin =   6.0180E-07 Note: One successful gmin step
Trying gmin =   5.8658E-07 Warning: Further gmin increment
Trying gmin =   5.9796E-07 Note: One successful gmin step
Trying gmin =   5.9224E-07 Note: One successful gmin step
Trying gmin =   5.8377E-07 Warning: Further gmin increment
Trying gmin =   5.9011E-07 Warning: Further gmin increment
Trying gmin =   5.9171E-07 Warning: Further gmin increment
Trying gmin =   5.9211E-07 Warning: Further gmin increment
Trying gmin =   5.9221E-07 Note: One successful gmin step
Trying gmin =   5.9216E-07 Warning: Further gmin increment
Trying gmin =   5.9219E-07 Warning: Last gmin step failed
Warning: Dynamic gmin stepping failed
Note: Starting source stepping
Supplies reduced to   0.0000% Note: One successful source step
Supplies reduced to   0.1000% Note: One successful source step
Supplies reduced to   0.2000% Note: One successful source step
Supplies reduced to   0.3500% Note: One successful source step
Supplies reduced to   0.5750% Note: One successful source step
Supplies reduced to   0.9125% Note: One successful source step
Supplies reduced to   1.4188% Note: One successful source step
Supplies reduced to   2.1781% Note: One successful source step
Supplies reduced to   3.3172% Note: One successful source step
Supplies reduced to   5.0258% Note: One successful source step
Supplies reduced to   7.5887% Note: One successful source step
Supplies reduced to  11.4330% Note: One successful source step
Supplies reduced to  17.1995% Note: One successful source step
Supplies reduced to  25.8493% Note: One successful source step
Supplies reduced to  38.8239% Supplies reduced to  25.8493% Note: One successful source step
Supplies reduced to  26.4980% Note: One successful source step
Supplies reduced to  27.4711% Note: One successful source step
Supplies reduced to  28.4442% Note: One successful source step
Supplies reduced to  29.9038% Note: One successful source step
Supplies reduced to  32.0933% Note: One successful source step
Supplies reduced to  35.3775% Note: One successful source step
Supplies reduced to  40.3038% Note: One successful source step
Supplies reduced to  45.2301% Note: One successful source step
Supplies reduced to  50.1564% Note: One successful source step
Supplies reduced to  57.5459% Note: One successful source step
Supplies reduced to  68.6301% Error: -3.60781e+165, 2 out of range for ^
Supplies reduced to  57.5459% Note: One successful source step
Supplies reduced to  58.5459% Note: One successful source step
Supplies reduced to  60.0459% Note: One successful source step
Supplies reduced to  62.2959% Supplies reduced to  60.0459% Note: One successful source step
Supplies reduced to  60.3834% Supplies reduced to  60.0459% Note: One successful source step
Supplies reduced to  60.0965% Note: One successful source step
Supplies reduced to  60.1725% Note: One successful source step
Supplies reduced to  60.2864% Supplies reduced to  60.1725% Note: One successful source step
Supplies reduced to  60.1895% Supplies reduced to  60.1725% Note: One successful source step
Supplies reduced to  60.1750% Note: One successful source step
Supplies reduced to  60.1789% Note: One successful source step
Supplies reduced to  60.1846% Supplies reduced to  60.1789% Note: One successful source step
Supplies reduced to  60.1797% Note: One successful source step
Supplies reduced to  60.1810% Note: One successful source step
Supplies reduced to  60.1830% Note: One successful source step
Supplies reduced to  60.1859% Supplies reduced to  60.1830% Note: One successful source step
Supplies reduced to  60.1834% Supplies reduced to  60.1830% Note: One successful source step
Supplies reduced to  60.1830% Note: One successful source step
Supplies reduced to  60.1831% Note: One successful source step
Supplies reduced to  60.1833% Supplies reduced to  60.1831% Note: One successful source step
Supplies reduced to  60.1832% Warning: source stepping failed
doAnalyses: Too many iterations without convergence

dc simulation(s) aborted
Error(parse.c--checkvalid): vldo_sup_2_8: zero length vector.
Error: RHS "abs((vldo_sup_2_8-vldo_sup_2)/0.8)" invalid
Error(parse.c--checkvalid): line_reg: zero length vector.
Error(parse.c--checkvalid): vin: zero length vector.
Error: RHS "vin-1.764" invalid
Error(parse.c--checkvalid): dropout: zero length vector.
Error: no such vector dropout
Note: No ".plot", ".print", or ".fourier" lines; no simulations run
pm                  =  7.955641e+01
Doing analysis at TEMP = 27.000000 and TNOM = 27.000000


No. of Data Rows : 91
psrr100             =  -8.447923e+01
psrr100k            =  -2.503793e+01
Doing analysis at TEMP = 27.000000 and TNOM = 27.000000


No. of Data Rows : 86
temp_coeff = 1.264182e+02
Doing analysis at TEMP = 27.000000 and TNOM = 27.000000


Error: measure  vldo_sup_2  (AT) : out of interval
 meas dc vldo_sup_2 find ldo_out at=2 failed!


Error: measure  vldo_sup_2_8  (AT) : out of interval
 meas dc vldo_sup_2_8 find ldo_out at=2.8 failed!


Error: measure  vin  (WHEN) : out of interval
 meas dc vin when v(ldo_out)=1.764 failed!

