 Reference value :  0.00000e+00
No compatibility mode selected!


Circuit: * ldo netlist 

Doing analysis at TEMP = 85.000000 and TNOM = 27.000000


No. of Data Rows : 1
bg_out = 1.102719e+00
inn = 1.064836e+00
inp = 1.064802e+00
l1#branch = 0.000000e+00
ldo_out = 1.813182e+00
m.xm1.msky130_fd_pr__nfet_g5v0d10v5#body = 2.935294e-11
m.xm1.msky130_fd_pr__nfet_g5v0d10v5#dbody = 5.621197e-11
m.xm1.msky130_fd_pr__nfet_g5v0d10v5#sbody = 3.184685e-11
m.xm2.msky130_fd_pr__pfet_g5v0d10v5#body = 2.500000e+00
m.xm2.msky130_fd_pr__pfet_g5v0d10v5#dbody = 2.500000e+00
m.xm2.msky130_fd_pr__pfet_g5v0d10v5#sbody = 2.500000e+00
m.xm3.msky130_fd_pr__pfet_g5v0d10v5#body = 2.500000e+00
m.xm3.msky130_fd_pr__pfet_g5v0d10v5#dbody = 2.500000e+00
m.xm3.msky130_fd_pr__pfet_g5v0d10v5#sbody = 2.500000e+00
m.xm4.msky130_fd_pr__pfet_g5v0d10v5#body = 2.500000e+00
m.xm4.msky130_fd_pr__pfet_g5v0d10v5#dbody = 2.500000e+00
m.xm4.msky130_fd_pr__pfet_g5v0d10v5#sbody = 2.500000e+00
m.xm5.msky130_fd_pr__pfet_g5v0d10v5#body = 2.500000e+00
m.xm5.msky130_fd_pr__pfet_g5v0d10v5#dbody = 2.500000e+00
m.xm5.msky130_fd_pr__pfet_g5v0d10v5#sbody = 2.500000e+00
m.xm6.msky130_fd_pr__nfet_g5v0d10v5#body = 1.919589e-11
m.xm6.msky130_fd_pr__nfet_g5v0d10v5#dbody = 4.798961e-11
m.xm6.msky130_fd_pr__nfet_g5v0d10v5#sbody = 9.598067e-12
m.xm7.msky130_fd_pr__pfet_g5v0d10v5#body = 2.500000e+00
m.xm7.msky130_fd_pr__pfet_g5v0d10v5#dbody = 2.500000e+00
m.xm7.msky130_fd_pr__pfet_g5v0d10v5#sbody = 2.500000e+00
m.xm8.msky130_fd_pr__pfet_g5v0d10v5#body = 2.500000e+00
m.xm8.msky130_fd_pr__pfet_g5v0d10v5#dbody = 2.500000e+00
m.xm8.msky130_fd_pr__pfet_g5v0d10v5#sbody = 2.500000e+00
m.xm9.msky130_fd_pr__nfet_g5v0d10v5#body = 2.753495e-11
m.xm9.msky130_fd_pr__nfet_g5v0d10v5#dbody = 5.461559e-11
m.xm9.msky130_fd_pr__nfet_g5v0d10v5#sbody = 2.798925e-11
m.xm10.msky130_fd_pr__nfet_g5v0d10v5#body = 2.730606e-11
m.xm10.msky130_fd_pr__nfet_g5v0d10v5#dbody = 5.404338e-11
m.xm10.msky130_fd_pr__nfet_g5v0d10v5#sbody = 2.787481e-11
m.xm11.msky130_fd_pr__pfet_g5v0d10v5#body = 2.500000e+00
m.xm11.msky130_fd_pr__pfet_g5v0d10v5#dbody = 2.500000e+00
m.xm11.msky130_fd_pr__pfet_g5v0d10v5#sbody = 2.500000e+00
m.xm12.msky130_fd_pr__pfet_g5v0d10v5#body = 2.500000e+00
m.xm12.msky130_fd_pr__pfet_g5v0d10v5#dbody = 2.500000e+00
m.xm12.msky130_fd_pr__pfet_g5v0d10v5#sbody = 2.500000e+00
m.xm13.msky130_fd_pr__nfet_g5v0d10v5#body = 5.463488e-12
m.xm13.msky130_fd_pr__nfet_g5v0d10v5#dbody = 1.365865e-11
m.xm13.msky130_fd_pr__nfet_g5v0d10v5#sbody = 2.731815e-12
m.xm14.msky130_fd_pr__pfet_g5v0d10v5#body = 2.500000e+00
m.xm14.msky130_fd_pr__pfet_g5v0d10v5#dbody = 2.500000e+00
m.xm14.msky130_fd_pr__pfet_g5v0d10v5#sbody = 2.500000e+00
m.xm15.msky130_fd_pr__nfet_g5v0d10v5#body = 2.530575e-14
m.xm15.msky130_fd_pr__nfet_g5v0d10v5#dbody = 6.326259e-14
m.xm15.msky130_fd_pr__nfet_g5v0d10v5#sbody = 1.265467e-14
m.xm16.msky130_fd_pr__nfet_g5v0d10v5#body = 5.504082e-11
m.xm16.msky130_fd_pr__nfet_g5v0d10v5#dbody = 1.005008e-10
m.xm16.msky130_fd_pr__nfet_g5v0d10v5#sbody = 6.462168e-11
m.xm17.msky130_fd_pr__pfet_g5v0d10v5#body = 2.500000e+00
m.xm17.msky130_fd_pr__pfet_g5v0d10v5#dbody = 2.500000e+00
m.xm17.msky130_fd_pr__pfet_g5v0d10v5#sbody = 2.500000e+00
m.xm18.msky130_fd_pr__nfet_g5v0d10v5#body = 1.936844e-11
m.xm18.msky130_fd_pr__nfet_g5v0d10v5#dbody = 4.842001e-11
m.xm18.msky130_fd_pr__nfet_g5v0d10v5#sbody = 9.684304e-12
m.xm19.msky130_fd_pr__nfet_g5v0d10v5#body = 2.940535e-11
m.xm19.msky130_fd_pr__nfet_g5v0d10v5#dbody = 5.634298e-11
m.xm19.msky130_fd_pr__nfet_g5v0d10v5#sbody = 3.187305e-11
m.xm20.msky130_fd_pr__nfet_g5v0d10v5#body = 1.246843e-11
m.xm20.msky130_fd_pr__nfet_g5v0d10v5#dbody = 3.117100e-11
m.xm20.msky130_fd_pr__nfet_g5v0d10v5#sbody = 6.234295e-12
m.xm22.msky130_fd_pr__nfet_g5v0d10v5#body = 1.187974e-11
m.xm22.msky130_fd_pr__nfet_g5v0d10v5#dbody = 2.969925e-11
m.xm22.msky130_fd_pr__nfet_g5v0d10v5#sbody = 5.939988e-12
m.xm24.msky130_fd_pr__pfet_g5v0d10v5#body = 2.500000e+00
m.xm24.msky130_fd_pr__pfet_g5v0d10v5#dbody = 2.500000e+00
m.xm24.msky130_fd_pr__pfet_g5v0d10v5#sbody = 2.500000e+00
m.xm26.msky130_fd_pr__pfet_g5v0d10v5#body = 2.500000e+00
m.xm26.msky130_fd_pr__pfet_g5v0d10v5#dbody = 2.500000e+00
m.xm26.msky130_fd_pr__pfet_g5v0d10v5#sbody = 2.500000e+00
mir = 1.242205e+00
net1 = 6.314072e-01
net2 = 4.897928e-05
net3 = 7.052416e-01
net4 = 2.677335e-01
net5 = 1.246398e+00
net6 = 8.528081e-01
net7 = 7.052067e-01
net8 = 1.328221e+00
net9 = 1.346532e+00
net10 = 2.815383e-01
net11 = 1.393861e+00
net12 = 1.393861e+00
net13 = 0.000000e+00
out = 1.393861e+00
pos = 1.102912e+00
q.xq2.qsky130_fd_pr__pnp_05v5_w0p68l0p68#collcx = 3.101704e-03
q.xq3.qsky130_fd_pr__pnp_05v5_w0p68l0p68#collcx = 3.916359e-04
q.xq4.qsky130_fd_pr__pnp_05v5_w0p68l0p68#collcx = 3.916359e-04
q.xq8.qsky130_fd_pr__pnp_05v5_w0p68l0p68#collcx = 3.916359e-04
q.xq10.qsky130_fd_pr__pnp_05v5_w0p68l0p68#collcx = 3.916359e-04
q.xq12.qsky130_fd_pr__pnp_05v5_w0p68l0p68#collcx = 3.916359e-04
q.xq14.qsky130_fd_pr__pnp_05v5_w0p68l0p68#collcx = 3.916359e-04
q.xq16.qsky130_fd_pr__pnp_05v5_w0p68l0p68#collcx = 3.916359e-04
q.xq18.qsky130_fd_pr__pnp_05v5_w0p68l0p68#collcx = 3.916359e-04
vb = 8.419006e-01
vdd = 2.500000e+00
vs#branch = -1.02194e-02
vt#branch = 0.000000e+00
xc1.a = 0.000000e+00
xc1.b1 = 0.000000e+00
xc3.a = 1.393861e+00
xc3.b1 = 1.393861e+00
xr1.xsky130_fd_pr__res_xhigh_po_0p69.ra = 7.084567e-01
xr2.xsky130_fd_pr__res_xhigh_po_0p69.ra = 7.084915e-01
xr3.xsky130_fd_pr__res_xhigh_po_0p69.ra = 1.987616e-03
xr4.xsky130_fd_pr__res_xhigh_po_0p69.ra = 6.327069e-01
xr5.xsky130_fd_pr__res_xhigh_po_0p69.ra = 1.987512e-03
xr6.xsky130_fd_pr__res_xhigh_po_0p69.ra = 3.438694e-03
xr7.xsky130_fd_pr__res_xhigh_po_0p69.ra = 1.393861e+00
xr8.xsky130_fd_pr__res_xhigh_po_0p69.ra = 1.108133e+00
xr9.xsky130_fd_pr__res_xhigh_po_0p69.ra = 5.390671e-03
Doing analysis at TEMP = 85.000000 and TNOM = 27.000000


No. of Data Rows : 91
Error: no such vector PM
Note: Starting true gmin stepping
Trying gmin =   1.0000E-03 Note: One successful gmin step
Trying gmin =   1.0000E-04 Note: One successful gmin step
Trying gmin =   1.0000E-05 Note: One successful gmin step
Trying gmin =   1.0000E-06 Note: One successful gmin step
Trying gmin =   1.0000E-07 Note: One successful gmin step
Trying gmin =   1.0000E-08 Warning: Further gmin increment
Trying gmin =   5.6234E-08 Note: One successful gmin step
Trying gmin =   2.3714E-08 Warning: Further gmin increment
Trying gmin =   4.5316E-08 Note: One successful gmin step
Trying gmin =   3.2781E-08 Note: One successful gmin step
Trying gmin =   2.0169E-08 Note: One successful gmin step
Trying gmin =   9.7338E-09 Note: One successful gmin step
Trying gmin =   3.2634E-09 Note: One successful gmin step
Trying gmin =   6.3352E-10 Note: One successful gmin step
Trying gmin =   6.3352E-11 Note: One successful gmin step
Trying gmin =   6.3352E-12 Note: One successful gmin step
Trying gmin =   1.0000E-12 Note: One successful gmin step
Note: True gmin stepping completed
 Reference value :  1.38000e+00Note: Starting true gmin stepping
Trying gmin =   1.0000E-03 Note: One successful gmin step
Trying gmin =   1.0000E-04 Note: One successful gmin step
Trying gmin =   1.0000E-05 Note: One successful gmin step
Trying gmin =   1.0000E-06 Note: One successful gmin step
Trying gmin =   1.0000E-07 Note: One successful gmin step
Trying gmin =   1.0000E-08 Warning: Further gmin increment
Trying gmin =   5.6234E-08 Note: One successful gmin step
Trying gmin =   2.3714E-08 Warning: Further gmin increment
Trying gmin =   4.5316E-08 Note: One successful gmin step
Trying gmin =   3.2781E-08 Warning: Further gmin increment
Trying gmin =   4.1792E-08 Note: One successful gmin step
Trying gmin =   3.7013E-08 Note: One successful gmin step
Trying gmin =   3.0850E-08 Note: One successful gmin step
Trying gmin =   2.3475E-08 Note: One successful gmin step
Trying gmin =   1.5582E-08 Note: One successful gmin step
Trying gmin =   8.4267E-09 Note: One successful gmin step
Trying gmin =   3.3513E-09 Note: One successful gmin step
Trying gmin =   8.4049E-10 Note: One successful gmin step
Trying gmin =   1.0556E-10 Note: One successful gmin step
Trying gmin =   1.0556E-11 Note: One successful gmin step
Trying gmin =   1.0556E-12 Note: One successful gmin step
Trying gmin =   1.0000E-12 Note: One successful gmin step
Note: True gmin stepping completed
 Reference value :  6.60000e-01
Error: measure  pm  (AT) : out of interval
 meas ac pm find p when vdb(ldo_out)=0 failed!

Doing analysis at TEMP = 85.000000 and TNOM = 27.000000


No. of Data Rows : 91
psrr100             =  -5.499759e+01
psrr100k            =  -2.521743e+01
Doing analysis at TEMP = 85.000000 and TNOM = 27.000000


No. of Data Rows : 86
temp_coeff = 7.507250e+01
Doing analysis at TEMP = 85.000000 and TNOM = 27.000000


No. of Data Rows : 141
vldo_sup_2          =  1.811759e+00
vldo_sup_2_8        =  1.813769e+00
line_reg = 2.512500e-03
Note: No ".plot", ".print", or ".fourier" lines; no simulations run
vin                 =  1.788073e+00
dropout = 2.407300e-02
