Note: Starting true gmin stepping
Trying gmin =   1.0000E-03 Note: One successful gmin step
Trying gmin =   1.0000E-04 Note: One successful gmin step
Trying gmin =   1.0000E-05 Note: One successful gmin step
Trying gmin =   1.0000E-06 Note: One successful gmin step
Trying gmin =   1.0000E-07 Warning: Further gmin increment
Trying gmin =   5.6234E-07 Note: One successful gmin step
Trying gmin =   2.3714E-07 Note: One successful gmin step
Trying gmin =   6.4938E-08 Warning: Further gmin increment
Trying gmin =   1.7154E-07 Note: One successful gmin step
Trying gmin =   1.0554E-07 Note: One successful gmin step
Trying gmin =   6.4938E-08 Note: One successful gmin step
Trying gmin =   3.1340E-08 Note: One successful gmin step
Trying gmin =   1.0507E-08 Note: One successful gmin step
Trying gmin =   2.0397E-09 Note: One successful gmin step
Trying gmin =   2.0397E-10 Note: One successful gmin step
Trying gmin =   2.0397E-11 Note: One successful gmin step
Trying gmin =   2.0397E-12 Note: One successful gmin step
Trying gmin =   1.0000E-12 Note: One successful gmin step
Note: True gmin stepping completed
 Reference value :  0.00000e+00
No compatibility mode selected!


Circuit: * ldo netlist 

Doing analysis at TEMP = 0.000000 and TNOM = 27.000000


No. of Data Rows : 1
bg_out = 6.211321e-01
inn = 8.395536e-01
inp = 8.390375e-01
l1#branch = 0.000000e+00
ldo_out = 9.383102e-01
m.xm1.msky130_fd_pr__nfet_g5v0d10v5#body = 1.196024e-11
m.xm1.msky130_fd_pr__nfet_g5v0d10v5#dbody = 2.900850e-11
m.xm1.msky130_fd_pr__nfet_g5v0d10v5#sbody = 6.872223e-12
m.xm2.msky130_fd_pr__pfet_g5v0d10v5#body = 2.100000e+00
m.xm2.msky130_fd_pr__pfet_g5v0d10v5#dbody = 2.100000e+00
m.xm2.msky130_fd_pr__pfet_g5v0d10v5#sbody = 2.100000e+00
m.xm3.msky130_fd_pr__pfet_g5v0d10v5#body = 2.100000e+00
m.xm3.msky130_fd_pr__pfet_g5v0d10v5#dbody = 2.100000e+00
m.xm3.msky130_fd_pr__pfet_g5v0d10v5#sbody = 2.100000e+00
m.xm4.msky130_fd_pr__pfet_g5v0d10v5#body = 2.100000e+00
m.xm4.msky130_fd_pr__pfet_g5v0d10v5#dbody = 2.100000e+00
m.xm4.msky130_fd_pr__pfet_g5v0d10v5#sbody = 2.100000e+00
m.xm5.msky130_fd_pr__pfet_g5v0d10v5#body = 2.100000e+00
m.xm5.msky130_fd_pr__pfet_g5v0d10v5#dbody = 2.100000e+00
m.xm5.msky130_fd_pr__pfet_g5v0d10v5#sbody = 2.100000e+00
m.xm6.msky130_fd_pr__nfet_g5v0d10v5#body = 1.138043e-11
m.xm6.msky130_fd_pr__nfet_g5v0d10v5#dbody = 2.845107e-11
m.xm6.msky130_fd_pr__nfet_g5v0d10v5#sbody = 5.690216e-12
m.xm7.msky130_fd_pr__pfet_g5v0d10v5#body = 2.100000e+00
m.xm7.msky130_fd_pr__pfet_g5v0d10v5#dbody = 2.100000e+00
m.xm7.msky130_fd_pr__pfet_g5v0d10v5#sbody = 2.100000e+00
m.xm8.msky130_fd_pr__pfet_g5v0d10v5#body = 2.100000e+00
m.xm8.msky130_fd_pr__pfet_g5v0d10v5#dbody = 2.100000e+00
m.xm8.msky130_fd_pr__pfet_g5v0d10v5#sbody = 2.100000e+00
m.xm9.msky130_fd_pr__nfet_g5v0d10v5#body = 1.501995e-11
m.xm9.msky130_fd_pr__nfet_g5v0d10v5#dbody = 3.752755e-11
m.xm9.msky130_fd_pr__nfet_g5v0d10v5#sbody = 7.532285e-12
m.xm10.msky130_fd_pr__nfet_g5v0d10v5#body = 1.224139e-11
m.xm10.msky130_fd_pr__nfet_g5v0d10v5#dbody = 3.058116e-11
m.xm10.msky130_fd_pr__nfet_g5v0d10v5#sbody = 6.143007e-12
m.xm11.msky130_fd_pr__pfet_g5v0d10v5#body = 2.100000e+00
m.xm11.msky130_fd_pr__pfet_g5v0d10v5#dbody = 2.100000e+00
m.xm11.msky130_fd_pr__pfet_g5v0d10v5#sbody = 2.100000e+00
m.xm12.msky130_fd_pr__pfet_g5v0d10v5#body = 2.100000e+00
m.xm12.msky130_fd_pr__pfet_g5v0d10v5#dbody = 2.100000e+00
m.xm12.msky130_fd_pr__pfet_g5v0d10v5#sbody = 2.100000e+00
m.xm13.msky130_fd_pr__nfet_g5v0d10v5#body = 1.115577e-14
m.xm13.msky130_fd_pr__nfet_g5v0d10v5#dbody = 2.788936e-14
m.xm13.msky130_fd_pr__nfet_g5v0d10v5#sbody = 5.577957e-15
m.xm14.msky130_fd_pr__pfet_g5v0d10v5#body = 2.100000e+00
m.xm14.msky130_fd_pr__pfet_g5v0d10v5#dbody = 2.100000e+00
m.xm14.msky130_fd_pr__pfet_g5v0d10v5#sbody = 2.100000e+00
m.xm15.msky130_fd_pr__nfet_g5v0d10v5#body = 1.544525e-11
m.xm15.msky130_fd_pr__nfet_g5v0d10v5#dbody = 3.861311e-11
m.xm15.msky130_fd_pr__nfet_g5v0d10v5#sbody = 7.722625e-12
m.xm16.msky130_fd_pr__nfet_g5v0d10v5#body = 3.674454e-11
m.xm16.msky130_fd_pr__nfet_g5v0d10v5#dbody = 7.087239e-11
m.xm16.msky130_fd_pr__nfet_g5v0d10v5#sbody = 3.936123e-11
m.xm17.msky130_fd_pr__pfet_g5v0d10v5#body = 2.100000e+00
m.xm17.msky130_fd_pr__pfet_g5v0d10v5#dbody = 2.100000e+00
m.xm17.msky130_fd_pr__pfet_g5v0d10v5#sbody = 2.100000e+00
m.xm18.msky130_fd_pr__nfet_g5v0d10v5#body = 9.867440e-12
m.xm18.msky130_fd_pr__nfet_g5v0d10v5#dbody = 2.466859e-11
m.xm18.msky130_fd_pr__nfet_g5v0d10v5#sbody = 4.933726e-12
m.xm19.msky130_fd_pr__nfet_g5v0d10v5#body = 1.272195e-11
m.xm19.msky130_fd_pr__nfet_g5v0d10v5#dbody = 3.091278e-11
m.xm19.msky130_fd_pr__nfet_g5v0d10v5#sbody = 7.253080e-12
m.xm20.msky130_fd_pr__nfet_g5v0d10v5#body = 1.163164e-11
m.xm20.msky130_fd_pr__nfet_g5v0d10v5#dbody = 2.907909e-11
m.xm20.msky130_fd_pr__nfet_g5v0d10v5#sbody = 5.815826e-12
m.xm22.msky130_fd_pr__nfet_g5v0d10v5#body = 4.460788e-13
m.xm22.msky130_fd_pr__nfet_g5v0d10v5#dbody = 1.115196e-12
m.xm22.msky130_fd_pr__nfet_g5v0d10v5#sbody = 2.230405e-13
m.xm24.msky130_fd_pr__pfet_g5v0d10v5#body = 2.100000e+00
m.xm24.msky130_fd_pr__pfet_g5v0d10v5#dbody = 2.100000e+00
m.xm24.msky130_fd_pr__pfet_g5v0d10v5#sbody = 2.100000e+00
m.xm26.msky130_fd_pr__pfet_g5v0d10v5#body = 2.100000e+00
m.xm26.msky130Note: Starting true gmin stepping
Trying gmin =   1.0000E-03 Note: One successful gmin step
Trying gmin =   1.0000E-04 Note: One successful gmin step
Trying gmin =   1.0000E-05 Note: One successful gmin step
Trying gmin =   1.0000E-06 Note: One successful gmin step
Trying gmin =   1.0000E-07 Warning: Further gmin increment
Trying gmin =   5.6234E-07 Note: One successful gmin step
Trying gmin =   2.3714E-07 Note: One successful gmin step
Trying gmin =   6.4938E-08 Warning: Further gmin increment
Trying gmin =   1.7154E-07 Note: One successful gmin step
Trying gmin =   1.0554E-07 Note: One successful gmin step
Trying gmin =   6.4938E-08 Note: One successful gmin step
Trying gmin =   3.1340E-08 Note: One successful gmin step
Trying gmin =   1.0507E-08 Note: One successful gmin step
Trying gmin =   2.0397E-09 Note: One successful gmin step
Trying gmin =   2.0397E-10 Note: One successful gmin step
Trying gmin =   2.0397E-11 Note: One successful gmin step
Trying gmin =   2.0397E-12 Note: One successful gmin step
Trying gmin =   1.0000E-12 Note: One successful gmin step
Note: True gmin stepping completed
_fd_pr__pfet_g5v0d10v5#dbody = 2.100000e+00
m.xm26.msky130_fd_pr__pfet_g5v0d10v5#sbody = 2.100000e+00
mir = 9.211305e-01
net1 = 6.131325e-01
net2 = 1.235604e+00
net3 = 6.137450e-01
net4 = 3.568050e-02
net5 = 9.820676e-01
net6 = 9.104265e-01
net7 = 6.132230e-01
net8 = 9.784154e-01
net9 = 1.200700e+00
net10 = 8.924003e-04
net11 = 7.893934e-01
net12 = 7.893934e-01
net13 = 0.000000e+00
out = 7.893934e-01
pos = 6.239663e-01
q.xq2.qsky130_fd_pr__pnp_05v5_w0p68l0p68#collcx = 3.874824e-07
q.xq3.qsky130_fd_pr__pnp_05v5_w0p68l0p68#collcx = 3.778529e-07
q.xq4.qsky130_fd_pr__pnp_05v5_w0p68l0p68#collcx = 3.778529e-07
q.xq8.qsky130_fd_pr__pnp_05v5_w0p68l0p68#collcx = 3.778529e-07
q.xq10.qsky130_fd_pr__pnp_05v5_w0p68l0p68#collcx = 3.778529e-07
q.xq12.qsky130_fd_pr__pnp_05v5_w0p68l0p68#collcx = 3.778529e-07
q.xq14.qsky130_fd_pr__pnp_05v5_w0p68l0p68#collcx = 3.778529e-07
q.xq16.qsky130_fd_pr__pnp_05v5_w0p68l0p68#collcx = 3.778529e-07
q.xq18.qsky130_fd_pr__pnp_05v5_w0p68l0p68#collcx = 3.778529e-07
vb = 9.305293e-01
vdd = 2.100000e+00
vs#branch = -5.21821e-02
vt#branch = 0.000000e+00
xc1.a = 0.000000e+00
xc1.b1 = 0.000000e+00
xc3.a = 7.893934e-01
xc3.b1 = 7.893934e-01
xr1.xsky130_fd_pr__res_xhigh_po_0p69.ra = 6.158239e-01
xr2.xsky130_fd_pr__res_xhigh_po_0p69.ra = 6.163458e-01
xr3.xsky130_fd_pr__res_xhigh_po_0p69.ra = 2.665720e-03
xr4.xsky130_fd_pr__res_xhigh_po_0p69.ra = 6.131351e-01
xr5.xsky130_fd_pr__res_xhigh_po_0p69.ra = 2.663341e-03
xr6.xsky130_fd_pr__res_xhigh_po_0p69.ra = 2.699407e-03
xr7.xsky130_fd_pr__res_xhigh_po_0p69.ra = 7.893934e-01
xr8.xsky130_fd_pr__res_xhigh_po_0p69.ra = 6.285967e-01
xr9.xsky130_fd_pr__res_xhigh_po_0p69.ra = 4.731176e-03
Doing analysis at TEMP = 0.000000 and TNOM = 27.000000


No. of Data Rows : 91
Note: Starting true gmin stepping
Trying gmin =   1.0000E-03 Note: One successful gmin step
Trying gmin =   1.0000E-04 Note: One successful gmin step
Trying gmin =   1.0000E-05 Note: One successful gmin step
Trying gmin =   1.0000E-06 Note: One successful gmin step
Trying gmin =   1.0000E-07 Warning: Further gmin increment
Trying gmin =   5.6234E-07 Note: One successful gmin step
Trying gmin =   2.3714E-07 Note: One successful gmin step
Trying gmin =   6.4938E-08 Warning: Further gmin increment
Trying gmin =   1.7154E-07 Note: One successful gmin step
Trying gmin =   1.0554E-07 Note: One successful gmin step
Trying gmin =   6.4938E-08 Note: One successful gmin step
Trying gmin =   3.1340E-08 Note: One successful gmin step
Trying gmin =   1.0507E-08 Note: One successful gmin step
Trying gmin =   2.0397E-09 Note: One successful gmin step
Trying gmin =   2.0397E-10 Note: One successful gmin step
Trying gmin =   2.0397E-11 Note: One successful gmin step
Trying gmin =   2.0397E-12 Note: One successful gmin step
Trying gmin =   1.0000E-12 Note: One successful gmin step
Note: True gmin stepping completed
 Reference value :  1.00000e+00Note: Starting true gmin stepping
Trying gmin =   1.0000E-03 Note: One successful gmin step
Trying gmin =   1.0000E-04 Note: One successful gmin step
Trying gmin =   1.0000E-05 Note: One successful gmin step
Trying gmin =   1.0000E-06 Warning: Further gmin increment
Trying gmin =   5.6234E-06 Note: One successful gmin step
Trying gmin =   2.3714E-06 Note: One successful gmin step
Trying gmin =   1.0000E-06 Warning: Further gmin increment
Trying gmin =   1.9110E-06 Note: One successful gmin step
Trying gmin =   1.3824E-06 Note: One successful gmin step
Trying gmin =   8.5053E-07 Note: One successful gmin step
Trying gmin =   4.1047E-07 Note: One successful gmin step
Trying gmin =   1.3762E-07 Note: One successful gmin step
Trying gmin =   4.6138E-08 Note: One successful gmin step
Trying gmin =   8.9567E-09 Warning: Further gmin increment
Trying gmin =   3.0626E-08 Warning: Further gmin increment
Trying gmin =   4.1645E-08 Warning: Further gmin increment
Trying gmin =   4.4972E-08 Note: One successful gmin step
Trying gmin =   4.3277E-08 Warning: Further gmin increment
Trying gmin =   4.4542E-08 Note: One successful gmin step
Trying gmin =   4.3905E-08 Warning: Further gmin increment
Trying gmin =   4.4382E-08 Warning: Further gmin increment
Trying gmin =   4.4502E-08 Warning: Further gmin increment
Trying gmin =   4.4532E-08 Note: One successful gmin step
Trying gmin =   4.4517E-08 Warning: Further gmin increment
Trying gmin =   4.4528E-08 Warning: Further gmin increment
Trying gmin =   4.4531E-08 Note: One successful gmin step
Trying gmin =   4.4529E-08 Note: One successful gmin step
Trying gmin =   4.4527E-08 Warning: Last gmin step failed
Note: True gmin stepping completed
 Reference value :  2.80000e+00Note: Starting true gmin stepping
Trying gmin =   1.0000E-03 Note: One successful gmin step
Trying gmin =   1.0000E-04 Note: One successful gmin step
Trying gmin =   1.0000E-05 Note: One successful gmin step
Trying gmin =   1.0000E-06 Note: One successful gmin step
Trying gmin =   1.0000E-07 Note: One successful gmin step
Trying gmin =   1.0000E-08 Note: One successful gmin step
Trying gmin =   3.1623E-09 Note: One successful gmin step
Trying gmin =   5.6234E-10 Note: One successful gmin step
Trying gmin =   2.3714E-10 Warning: Further gmin increment
Trying gmin =   4.5316E-10 Note: One successful gmin step
Trying gmin =   3.2781E-10 Warning: Further gmin increment
Trying gmin =   4.1792E-10 Note: One successful gmin step
Trying gmin =   3.7013E-10 Note: One successful gmin step
Trying gmin =   3.4833E-10 Note: One successful gmin step
Trying gmin =   3.1801E-10 Note: One successful gmin step
Trying gmin =   2.7741E-10 Note: One successful gmin step
Trying gmin =   2.2601E-10 Note: One successful gmin step
Trying gmin =   1.6620E-10 Note: One successful gmin step
Trying gmin =   1.0481E-10 Note: One successful gmin step
Trying gmin =   5.2490E-11 Note: One successful gmin step
Trying gmin =   1.8602E-11 Note: One successful gmin step
Trying gmin =   3.9247E-12 Note: One successful gmin step
Trying gmin =   1.0000E-12 Note: One successful gmin step
Note: True gmin stepping completed
 Reference value :  1.32000e+00Note: Starting true gmin stepping
Trying gmin =   1.0000E-03 Note: One successful gmin step
Trying gmin =   1.0000E-04 Note: One successful gmin step
Trying gmin =   1.0000E-05 Note: One successful gmin step
Trying gmin =   1.0000E-06 Note: One successful gmin step
Trying gmin =   1.0000E-07 Note: One successful gmin step
Trying gmin =   1.0000E-08 Note: One successful gmin step
Trying gmin =   3.1623E-09 Note: One successful gmin step
Trying gmin =   5.6234E-10 Note: One successful gmin step
Trying gmin =   1.0000E-10 Warning: Further gmin increment
Trying gmin =   3.6517E-10 Note: One successful gmin step
Trying gmin =   1.9110E-10 Warning: Further gmin increment
Trying gmin =   3.1059E-10 Note: One successful gmin step
Trying gmin =   2.4362E-10 Note: One successful gmin step
Trying gmin =   1.9110E-10 Note: One successful gmin step
Trying gmin =   1.3275E-10 Note: One successful gmin step
Trying gmin =   7.6867E-11 Note: One successful gmin step
Trying gmin =   3.3868E-11 Note: One successful gmin step
Trying gmin =   9.9049E-12 Note: One successful gmin step
Trying gmin =   1.5666E-12 Note: One successful gmin step
Trying gmin =   1.0000E-12 Note: One successful gmin step
Note: True gmin stepping completed
 Reference value :  1.40000e-01pm                  =  9.030714e+01
Doing analysis at TEMP = 0.000000 and TNOM = 27.000000


No. of Data Rows : 91
psrr100             =  -2.735615e+01
psrr100k            =  -9.563041e+00
Doing analysis at TEMP = 0.000000 and TNOM = 27.000000


No. of Data Rows : 86
temp_coeff = 1.204884e+02
Doing analysis at TEMP = 0.000000 and TNOM = 27.000000


No. of Data Rows : 141
vldo_sup_2          =  1.794857e+00
vldo_sup_2_8        =  1.794081e+00
line_reg = 9.700000e-04
Note: No ".plot", ".print", or ".fourier" lines; no simulations run
vin                 =  1.924319e+00
dropout = 1.603190e-01
