 Reference value :  0.00000e+00
No compatibility mode selected!


Circuit: * ldo netlist 

Doing analysis at TEMP = 85.000000 and TNOM = 27.000000


No. of Data Rows : 1
bg_out = 1.204178e+00
inn = 1.154401e+00
inp = 1.154356e+00
l1#branch = 0.000000e+00
ldo_out = 1.811679e+00
m.xm1.msky130_fd_pr__nfet_g5v0d10v5#body = 2.972058e-11
m.xm1.msky130_fd_pr__nfet_g5v0d10v5#dbody = 5.743693e-11
m.xm1.msky130_fd_pr__nfet_g5v0d10v5#sbody = 3.172482e-11
m.xm2.msky130_fd_pr__pfet_g5v0d10v5#body = 2.500000e+00
m.xm2.msky130_fd_pr__pfet_g5v0d10v5#dbody = 2.500000e+00
m.xm2.msky130_fd_pr__pfet_g5v0d10v5#sbody = 2.500000e+00
m.xm3.msky130_fd_pr__pfet_g5v0d10v5#body = 2.500000e+00
m.xm3.msky130_fd_pr__pfet_g5v0d10v5#dbody = 2.500000e+00
m.xm3.msky130_fd_pr__pfet_g5v0d10v5#sbody = 2.500000e+00
m.xm4.msky130_fd_pr__pfet_g5v0d10v5#body = 2.500000e+00
m.xm4.msky130_fd_pr__pfet_g5v0d10v5#dbody = 2.500000e+00
m.xm4.msky130_fd_pr__pfet_g5v0d10v5#sbody = 2.500000e+00
m.xm5.msky130_fd_pr__pfet_g5v0d10v5#body = 2.500000e+00
m.xm5.msky130_fd_pr__pfet_g5v0d10v5#dbody = 2.500000e+00
m.xm5.msky130_fd_pr__pfet_g5v0d10v5#sbody = 2.500000e+00
m.xm6.msky130_fd_pr__nfet_g5v0d10v5#body = 2.031005e-11
m.xm6.msky130_fd_pr__nfet_g5v0d10v5#dbody = 5.077501e-11
m.xm6.msky130_fd_pr__nfet_g5v0d10v5#sbody = 1.015514e-11
m.xm7.msky130_fd_pr__pfet_g5v0d10v5#body = 2.500000e+00
m.xm7.msky130_fd_pr__pfet_g5v0d10v5#dbody = 2.500000e+00
m.xm7.msky130_fd_pr__pfet_g5v0d10v5#sbody = 2.500000e+00
m.xm8.msky130_fd_pr__pfet_g5v0d10v5#body = 2.500000e+00
m.xm8.msky130_fd_pr__pfet_g5v0d10v5#dbody = 2.500000e+00
m.xm8.msky130_fd_pr__pfet_g5v0d10v5#sbody = 2.500000e+00
m.xm9.msky130_fd_pr__nfet_g5v0d10v5#body = 2.792750e-11
m.xm9.msky130_fd_pr__nfet_g5v0d10v5#dbody = 5.582274e-11
m.xm9.msky130_fd_pr__nfet_g5v0d10v5#sbody = 2.795976e-11
m.xm10.msky130_fd_pr__nfet_g5v0d10v5#body = 2.778282e-11
m.xm10.msky130_fd_pr__nfet_g5v0d10v5#dbody = 5.546104e-11
m.xm10.msky130_fd_pr__nfet_g5v0d10v5#sbody = 2.788743e-11
m.xm11.msky130_fd_pr__pfet_g5v0d10v5#body = 2.500000e+00
m.xm11.msky130_fd_pr__pfet_g5v0d10v5#dbody = 2.500000e+00
m.xm11.msky130_fd_pr__pfet_g5v0d10v5#sbody = 2.500000e+00
m.xm12.msky130_fd_pr__pfet_g5v0d10v5#body = 2.500000e+00
m.xm12.msky130_fd_pr__pfet_g5v0d10v5#dbody = 2.500000e+00
m.xm12.msky130_fd_pr__pfet_g5v0d10v5#sbody = 2.500000e+00
m.xm13.msky130_fd_pr__nfet_g5v0d10v5#body = 5.350787e-12
m.xm13.msky130_fd_pr__nfet_g5v0d10v5#dbody = 1.337690e-11
m.xm13.msky130_fd_pr__nfet_g5v0d10v5#sbody = 2.675460e-12
m.xm14.msky130_fd_pr__pfet_g5v0d10v5#body = 2.500000e+00
m.xm14.msky130_fd_pr__pfet_g5v0d10v5#dbody = 2.500000e+00
m.xm14.msky130_fd_pr__pfet_g5v0d10v5#sbody = 2.500000e+00
m.xm15.msky130_fd_pr__nfet_g5v0d10v5#body = 2.913857e-14
m.xm15.msky130_fd_pr__nfet_g5v0d10v5#dbody = 7.284509e-14
m.xm15.msky130_fd_pr__nfet_g5v0d10v5#sbody = 1.457062e-14
m.xm16.msky130_fd_pr__nfet_g5v0d10v5#body = 5.628633e-11
m.xm16.msky130_fd_pr__nfet_g5v0d10v5#dbody = 1.012495e-10
m.xm16.msky130_fd_pr__nfet_g5v0d10v5#sbody = 6.760951e-11
m.xm17.msky130_fd_pr__pfet_g5v0d10v5#body = 2.500000e+00
m.xm17.msky130_fd_pr__pfet_g5v0d10v5#dbody = 2.500000e+00
m.xm17.msky130_fd_pr__pfet_g5v0d10v5#sbody = 2.500000e+00
m.xm18.msky130_fd_pr__nfet_g5v0d10v5#body = 1.383939e-11
m.xm18.msky130_fd_pr__nfet_g5v0d10v5#dbody = 3.459839e-11
m.xm18.msky130_fd_pr__nfet_g5v0d10v5#sbody = 6.919769e-12
m.xm19.msky130_fd_pr__nfet_g5v0d10v5#body = 2.979007e-11
m.xm19.msky130_fd_pr__nfet_g5v0d10v5#dbody = 5.761064e-11
m.xm19.msky130_fd_pr__nfet_g5v0d10v5#sbody = 3.175956e-11
m.xm20.msky130_fd_pr__nfet_g5v0d10v5#body = 1.431106e-11
m.xm20.msky130_fd_pr__nfet_g5v0d10v5#dbody = 3.577757e-11
m.xm20.msky130_fd_pr__nfet_g5v0d10v5#sbody = 7.155606e-12
m.xm22.msky130_fd_pr__nfet_g5v0d10v5#body = 1.172611e-11
m.xm22.msky130_fd_pr__nfet_g5v0d10v5#dbody = 2.931517e-11
m.xm22.msky130_fd_pr__nfet_g5v0d10v5#sbody = 5.863162e-12
m.xm24.msky130_fd_pr__pfet_g5v0d10v5#body = 2.500000e+00
m.xm24.msky130_fd_pr__pfet_g5v0d10v5#dbody = 2.500000e+00
m.xm24.msky130_fd_pr__pfet_g5v0d10v5#sbody = 2.500000e+00
m.xm26.msky130_fd_pr__pfet_g5v0d10v5#body = 2.500000e+00
m.xm26.msky130_fd_pr__pfet_g5v0d10v5#dbody = 2.500000e+00
m.xm26.msky130_fd_pr__pfet_g5v0d10v5#sbody = 2.500000e+00
mir = 1.278813e+00
net1 = 6.369289e-01
net2 = 5.619764e-05
net3 = 7.100202e-01
net4 = 2.505536e-01
net5 = 1.284371e+00
net6 = 9.369028e-01
net7 = 7.099746e-01
net8 = 1.370354e+00
net9 = 1.381928e+00
net10 = 2.675028e-01
net11 = 9.465391e-01
net12 = 9.465391e-01
net13 = 0.000000e+00
out = 9.465391e-01
pos = 1.204292e+00
q.xq2.qsky130_fd_pr__pnp_05v5_w0p68l0p68#collcx = 2.807557e-03
q.xq3.qsky130_fd_pr__pnp_05v5_w0p68l0p68#collcx = 3.571171e-04
q.xq4.qsky130_fd_pr__pnp_05v5_w0p68l0p68#collcx = 3.571171e-04
q.xq8.qsky130_fd_pr__pnp_05v5_w0p68l0p68#collcx = 3.571171e-04
q.xq10.qsky130_fd_pr__pnp_05v5_w0p68l0p68#collcx = 3.571171e-04
q.xq12.qsky130_fd_pr__pnp_05v5_w0p68l0p68#collcx = 3.571171e-04
q.xq14.qsky130_fd_pr__pnp_05v5_w0p68l0p68#collcx = 3.571171e-04
q.xq16.qsky130_fd_pr__pnp_05v5_w0p68l0p68#collcx = 3.571171e-04
q.xq18.qsky130_fd_pr__pnp_05v5_w0p68l0p68#collcx = 3.571171e-04
vb = 9.842728e-01
vdd = 2.500000e+00
vs#branch = -1.00786e-01
vt#branch = 0.000000e+00
xc1.a = 0.000000e+00
xc1.b1 = 0.000000e+00
xc3.a = 9.465391e-01
xc3.b1 = 9.465391e-01
xr1.xsky130_fd_pr__res_xhigh_po_0p69.ra = 7.158077e-01
xr2.xsky130_fd_pr__res_xhigh_po_0p69.ra = 7.158533e-01
xr3.xsky130_fd_pr__res_xhigh_po_0p69.ra = 3.502733e-03
xr4.xsky130_fd_pr__res_xhigh_po_0p69.ra = 6.392939e-01
xr5.xsky130_fd_pr__res_xhigh_po_0p69.ra = 3.502494e-03
xr6.xsky130_fd_pr__res_xhigh_po_0p69.ra = 6.182046e-03
xr7.xsky130_fd_pr__res_xhigh_po_0p69.ra = 9.465391e-01
xr8.xsky130_fd_pr__res_xhigh_po_0p69.ra = 1.214566e+00
xr9.xsky130_fd_pr__res_xhigh_po_0p69.ra = 1.077820e-02
Doing analysis at TEMP = 85.000000 and TNOM = 27.000000


No. of Data Rows : 91
Note: Starting true gmin stepping
Trying gmin =   1.0000E-03 Note: One successful gmin step
Trying gmin =   1.0000E-04 Note: One successful gmin step
Trying gmin =   1.0000E-05 Note: One successful gmin step
Trying gmin =   1.0000E-06 Note: One successful gmin step
Trying gmin =   1.0000E-07 Note: One successful gmin step
Trying gmin =   1.0000E-08 Note: One successful gmin step
Trying gmin =   1.0000E-09 Note: One successful gmin step
Trying gmin =   1.0000E-10 Note: One successful gmin step
Trying gmin =   1.0000E-11 Note: One successful gmin step
Trying gmin =   1.0000E-12 Note: One successful gmin step
Trying gmin =   1.0000E-12 Note: One successful gmin step
Note: True gmin stepping completed
 Reference value :  1.20000e+00Note: Starting true gmin stepping
Trying gmin =   1.0000E-03 Note: One successful gmin step
Trying gmin =   1.0000E-04 Note: One successful gmin step
Trying gmin =   1.0000E-05 Note: One successful gmin step
Trying gmin =   1.0000E-06 Note: One successful gmin step
Trying gmin =   1.0000E-07 Note: One successful gmin step
Trying gmin =   1.0000E-08 Note: One successful gmin step
Trying gmin =   1.0000E-09 Note: One successful gmin step
Trying gmin =   1.0000E-10 Note: One successful gmin step
Trying gmin =   1.0000E-11 Note: One successful gmin step
Trying gmin =   1.0000E-12 Note: One successful gmin step
Trying gmin =   1.0000E-12 Note: One successful gmin step
Note: True gmin stepping completed
pm                  =  1.454760e+02
Doing analysis at TEMP = 85.000000 and TNOM = 27.000000


No. of Data Rows : 91
psrr100             =  -5.259698e+01
psrr100k            =  -2.431412e+01
Doing analysis at TEMP = 85.000000 and TNOM = 27.000000


No. of Data Rows : 86
temp_coeff = 1.570120e+02
Doing analysis at TEMP = 85.000000 and TNOM = 27.000000


No. of Data Rows : 141
vldo_sup_2          =  1.779837e+00
vldo_sup_2_8        =  1.812014e+00
line_reg = 4.022125e-02
Note: No ".plot", ".print", or ".fourier" lines; no simulations run
vin                 =  1.985230e+00
dropout = 2.212300e-01
