 Reference value :  0.00000e+00
No compatibility mode selected!


Circuit: * ldo netlist 

Doing analysis at TEMP = 85.000000 and TNOM = 27.000000


No. of Data Rows : 1
bg_out = 1.204091e+00
inn = 1.150113e+00
inp = 1.150100e+00
l1#branch = 0.000000e+00
ldo_out = 1.812200e+00
m.xm1.msky130_fd_pr__nfet_g5v0d10v5#body = 3.021452e-11
m.xm1.msky130_fd_pr__nfet_g5v0d10v5#dbody = 5.674519e-11
m.xm1.msky130_fd_pr__nfet_g5v0d10v5#sbody = 3.389836e-11
m.xm2.msky130_fd_pr__pfet_g5v0d10v5#body = 2.500000e+00
m.xm2.msky130_fd_pr__pfet_g5v0d10v5#dbody = 2.500000e+00
m.xm2.msky130_fd_pr__pfet_g5v0d10v5#sbody = 2.500000e+00
m.xm3.msky130_fd_pr__pfet_g5v0d10v5#body = 2.500000e+00
m.xm3.msky130_fd_pr__pfet_g5v0d10v5#dbody = 2.500000e+00
m.xm3.msky130_fd_pr__pfet_g5v0d10v5#sbody = 2.500000e+00
m.xm4.msky130_fd_pr__pfet_g5v0d10v5#body = 2.500000e+00
m.xm4.msky130_fd_pr__pfet_g5v0d10v5#dbody = 2.500000e+00
m.xm4.msky130_fd_pr__pfet_g5v0d10v5#sbody = 2.500000e+00
m.xm5.msky130_fd_pr__pfet_g5v0d10v5#body = 2.500000e+00
m.xm5.msky130_fd_pr__pfet_g5v0d10v5#dbody = 2.500000e+00
m.xm5.msky130_fd_pr__pfet_g5v0d10v5#sbody = 2.500000e+00
m.xm6.msky130_fd_pr__nfet_g5v0d10v5#body = 1.916182e-11
m.xm6.msky130_fd_pr__nfet_g5v0d10v5#dbody = 4.790444e-11
m.xm6.msky130_fd_pr__nfet_g5v0d10v5#sbody = 9.581030e-12
m.xm7.msky130_fd_pr__pfet_g5v0d10v5#body = 2.500000e+00
m.xm7.msky130_fd_pr__pfet_g5v0d10v5#dbody = 2.500000e+00
m.xm7.msky130_fd_pr__pfet_g5v0d10v5#sbody = 2.500000e+00
m.xm8.msky130_fd_pr__pfet_g5v0d10v5#body = 2.500000e+00
m.xm8.msky130_fd_pr__pfet_g5v0d10v5#dbody = 2.500000e+00
m.xm8.msky130_fd_pr__pfet_g5v0d10v5#sbody = 2.500000e+00
m.xm9.msky130_fd_pr__nfet_g5v0d10v5#body = 2.848129e-11
m.xm9.msky130_fd_pr__nfet_g5v0d10v5#dbody = 5.507177e-11
m.xm9.msky130_fd_pr__nfet_g5v0d10v5#sbody = 3.037210e-11
m.xm10.msky130_fd_pr__nfet_g5v0d10v5#body = 2.823260e-11
m.xm10.msky130_fd_pr__nfet_g5v0d10v5#dbody = 5.445004e-11
m.xm10.msky130_fd_pr__nfet_g5v0d10v5#sbody = 3.024775e-11
m.xm11.msky130_fd_pr__pfet_g5v0d10v5#body = 2.500000e+00
m.xm11.msky130_fd_pr__pfet_g5v0d10v5#dbody = 2.500000e+00
m.xm11.msky130_fd_pr__pfet_g5v0d10v5#sbody = 2.500000e+00
m.xm12.msky130_fd_pr__pfet_g5v0d10v5#body = 2.500000e+00
m.xm12.msky130_fd_pr__pfet_g5v0d10v5#dbody = 2.500000e+00
m.xm12.msky130_fd_pr__pfet_g5v0d10v5#sbody = 2.500000e+00
m.xm13.msky130_fd_pr__nfet_g5v0d10v5#body = 6.418017e-12
m.xm13.msky130_fd_pr__nfet_g5v0d10v5#dbody = 1.604497e-11
m.xm13.msky130_fd_pr__nfet_g5v0d10v5#sbody = 3.209080e-12
m.xm14.msky130_fd_pr__pfet_g5v0d10v5#body = 2.500000e+00
m.xm14.msky130_fd_pr__pfet_g5v0d10v5#dbody = 2.500000e+00
m.xm14.msky130_fd_pr__pfet_g5v0d10v5#sbody = 2.500000e+00
m.xm15.msky130_fd_pr__nfet_g5v0d10v5#body = 1.381295e-14
m.xm15.msky130_fd_pr__nfet_g5v0d10v5#dbody = 3.453120e-14
m.xm15.msky130_fd_pr__nfet_g5v0d10v5#sbody = 6.907660e-15
m.xm16.msky130_fd_pr__nfet_g5v0d10v5#body = 5.610679e-11
m.xm16.msky130_fd_pr__nfet_g5v0d10v5#dbody = 1.010338e-10
m.xm16.msky130_fd_pr__nfet_g5v0d10v5#sbody = 6.728659e-11
m.xm17.msky130_fd_pr__pfet_g5v0d10v5#body = 2.500000e+00
m.xm17.msky130_fd_pr__pfet_g5v0d10v5#dbody = 2.500000e+00
m.xm17.msky130_fd_pr__pfet_g5v0d10v5#sbody = 2.500000e+00
m.xm18.msky130_fd_pr__nfet_g5v0d10v5#body = 2.388112e-11
m.xm18.msky130_fd_pr__nfet_g5v0d10v5#dbody = 5.903053e-11
m.xm18.msky130_fd_pr__nfet_g5v0d10v5#sbody = 1.194064e-11
m.xm19.msky130_fd_pr__nfet_g5v0d10v5#body = 3.023391e-11
m.xm19.msky130_fd_pr__nfet_g5v0d10v5#dbody = 5.679367e-11
m.xm19.msky130_fd_pr__nfet_g5v0d10v5#sbody = 3.390806e-11
m.xm20.msky130_fd_pr__nfet_g5v0d10v5#body = 1.243525e-11
m.xm20.msky130_fd_pr__nfet_g5v0d10v5#dbody = 3.108804e-11
m.xm20.msky130_fd_pr__nfet_g5v0d10v5#sbody = 6.217701e-12
m.xm22.msky130_fd_pr__nfet_g5v0d10v5#body = 1.269100e-11
m.xm22.msky130_fd_pr__nfet_g5v0d10v5#dbody = 3.172739e-11
m.xm22.msky130_fd_pr__nfet_g5v0d10v5#sbody = 6.345616e-12
m.xm24.msky130_fd_pr__pfet_g5v0d10v5#body = 2.500000e+00
m.xm24.msky130_fd_pr__pfet_g5v0d10v5#dbody = 2.500000e+00
m.xm24.msky130_fd_pr__pfet_g5v0d10v5#sbody = 2.500000e+00
m.xm26.msky130_fd_pr__pfet_g5v0d10v5#body = 2.500000e+00
m.xm26.msky130_fd_pr__pfet_g5v0d10v5#dbody = 2.500000e+00
m.xm26.msky130_fd_pr__pfet_g5v0d10v5#sbody = 2.500000e+00
mir = 1.246302e+00
net1 = 6.313530e-01
net2 = 2.672625e-05
net3 = 7.052140e-01
net4 = 3.324483e-01
net5 = 1.247854e+00
net6 = 8.500828e-01
net7 = 7.052004e-01
net8 = 1.325957e+00
net9 = 1.345852e+00
net10 = 3.578711e-01
net11 = 1.728028e+00
net12 = 1.728028e+00
net13 = 0.000000e+00
out = 1.728028e+00
pos = 1.204308e+00
q.xq2.qsky130_fd_pr__pnp_05v5_w0p68l0p68#collcx = 3.103713e-03
q.xq3.qsky130_fd_pr__pnp_05v5_w0p68l0p68#collcx = 3.918869e-04
q.xq4.qsky130_fd_pr__pnp_05v5_w0p68l0p68#collcx = 3.918869e-04
q.xq8.qsky130_fd_pr__pnp_05v5_w0p68l0p68#collcx = 3.918869e-04
q.xq10.qsky130_fd_pr__pnp_05v5_w0p68l0p68#collcx = 3.918869e-04
q.xq12.qsky130_fd_pr__pnp_05v5_w0p68l0p68#collcx = 3.918869e-04
q.xq14.qsky130_fd_pr__pnp_05v5_w0p68l0p68#collcx = 3.918869e-04
q.xq16.qsky130_fd_pr__pnp_05v5_w0p68l0p68#collcx = 3.918869e-04
q.xq18.qsky130_fd_pr__pnp_05v5_w0p68l0p68#collcx = 3.918869e-04
vb = 8.392459e-01
vdd = 2.500000e+00
vs#branch = -1.96208e-04
vt#branch = 0.000000e+00
xc1.a = 0.000000e+00
xc1.b1 = 0.000000e+00
xc3.a = 1.728028e+00
xc3.b1 = 1.728028e+00
xr1.xsky130_fd_pr__res_xhigh_po_0p69.ra = 7.083769e-01
xr2.xsky130_fd_pr__res_xhigh_po_0p69.ra = 7.083904e-01
xr3.xsky130_fd_pr__res_xhigh_po_0p69.ra = 1.893423e-03
xr4.xsky130_fd_pr__res_xhigh_po_0p69.ra = 6.326535e-01
xr5.xsky130_fd_pr__res_xhigh_po_0p69.ra = 1.893385e-03
xr6.xsky130_fd_pr__res_xhigh_po_0p69.ra = 3.365906e-03
xr7.xsky130_fd_pr__res_xhigh_po_0p69.ra = 1.728028e+00
xr8.xsky130_fd_pr__res_xhigh_po_0p69.ra = 1.209900e+00
xr9.xsky130_fd_pr__res_xhigh_po_0p69.ra = 5.866573e-03
Doing analysis at TEMP = 85.000000 and TNOM = 27.000000


No. of Data Rows : 91
Note: Starting true gmin stepping
Trying gmin =   1.0000E-03 Note: One successful gmin step
Trying gmin =   1.0000E-04 Note: One successful gmin step
Trying gmin =   1.0000E-05 Note: One successful gmin step
Trying gmin =   1.0000E-06 Note: One successful gmin step
Trying gmin =   1.0000E-07 Note: One successful gmin step
Trying gmin =   1.0000E-08 Warning: Further gmin increment
Trying gmin =   5.6234E-08 Warning: Further gmin increment
Trying gmin =   8.6596E-08 Note: One successful gmin step
Trying gmin =   6.9783E-08 Note: One successful gmin step
Trying gmin =   5.0481E-08 Note: One successful gmin step
Trying gmin =   3.1059E-08 Note: One successful gmin step
Trying gmin =   1.4989E-08 Note: One successful gmin step
Trying gmin =   5.0254E-09 Note: One successful gmin step
Trying gmin =   9.7557E-10 Note: One successful gmin step
Trying gmin =   9.7557E-11 Note: One successful gmin step
Trying gmin =   9.7557E-12 Note: One successful gmin step
Trying gmin =   1.0000E-12 Note: One successful gmin step
Note: True gmin stepping completed
 Reference value :  1.46000e+00Note: Starting true gmin stepping
Trying gmin =   1.0000E-03 Note: One successful gmin step
Trying gmin =   1.0000E-04 Note: One successful gmin step
Trying gmin =   1.0000E-05 Note: One successful gmin step
Trying gmin =   1.0000E-06 Note: One successful gmin step
Trying gmin =   1.0000E-07 Note: One successful gmin step
Trying gmin =   1.0000E-08 Warning: Further gmin increment
Trying gmin =   5.6234E-08 Warning: Further gmin increment
Trying gmin =   8.6596E-08 Note: One successful gmin step
Trying gmin =   6.9783E-08 Note: One successful gmin step
Trying gmin =   5.6234E-08 Note: One successful gmin step
Trying gmin =   4.0679E-08 Note: One successful gmin step
Trying gmin =   2.5029E-08 Note: One successful gmin step
Trying gmin =   1.2079E-08 Note: One successful gmin step
Trying gmin =   4.0497E-09 Note: One successful gmin step
Trying gmin =   7.8615E-10 Note: One successful gmin step
Trying gmin =   7.8615E-11 Note: One successful gmin step
Trying gmin =   7.8615E-12 Note: One successful gmin step
Trying gmin =   1.0000E-12 Note: One successful gmin step
Note: True gmin stepping completed
Note: Starting true gmin stepping
Trying gmin =   1.0000E-03 Note: One successful gmin step
Trying gmin =   1.0000E-04 Note: One successful gmin step
Trying gmin =   1.0000E-05 Note: One successful gmin step
Trying gmin =   1.0000E-06 Note: One successful gmin step
Trying gmin =   1.0000E-07 Note: One successful gmin step
Trying gmin =   1.0000E-08 Warning: Further gmin increment
Trying gmin =   5.6234E-08 Note: One successful gmin step
Trying gmin =   3.1623E-08 Note: One successful gmin step
Trying gmin =   1.3335E-08 Warning: Further gmin increment
Trying gmin =   2.5483E-08 Note: One successful gmin step
Trying gmin =   1.8434E-08 Note: One successful gmin step
Trying gmin =   1.1342E-08 Note: One successful gmin step
Trying gmin =   5.4737E-09 Note: One successful gmin step
Trying gmin =   1.8352E-09 Note: One successful gmin step
Trying gmin =   3.5625E-10 Note: One successful gmin step
Trying gmin =   3.5625E-11 Note: One successful gmin step
Trying gmin =   3.5625E-12 Note: One successful gmin step
Trying gmin =   1.0000E-12 Note: One successful gmin step
Note: True gmin stepping completed
 Reference value :  1.24000e+00pm                  =  5.568702e+01
Doing analysis at TEMP = 85.000000 and TNOM = 27.000000


No. of Data Rows : 91
psrr100             =  -5.364328e+01
psrr100k            =  -2.517000e+01
Doing analysis at TEMP = 85.000000 and TNOM = 27.000000


No. of Data Rows : 86
temp_coeff = 1.832000e+02
Doing analysis at TEMP = 85.000000 and TNOM = 27.000000


No. of Data Rows : 141
vldo_sup_2          =  1.810346e+00
vldo_sup_2_8        =  1.812709e+00
line_reg = 2.953750e-03
Note: No ".plot", ".print", or ".fourier" lines; no simulations run
vin                 =  1.764183e+00
dropout = 1.830000e-04
