 Reference value :  0.00000e+00
No compatibility mode selected!


Circuit: * ldo netlist 

Doing analysis at TEMP = 0.000000 and TNOM = 27.000000


No. of Data Rows : 1
bg_out = 5.749528e-01
inn = 7.944718e-01
inp = 7.940733e-01
l1#branch = 0.000000e+00
ldo_out = 9.492157e-01
m.xm1.msky130_fd_pr__nfet_g5v0d10v5#body = 1.580257e-11
m.xm1.msky130_fd_pr__nfet_g5v0d10v5#dbody = 3.846168e-11
m.xm1.msky130_fd_pr__nfet_g5v0d10v5#sbody = 8.946015e-12
m.xm2.msky130_fd_pr__pfet_g5v0d10v5#body = 2.500000e+00
m.xm2.msky130_fd_pr__pfet_g5v0d10v5#dbody = 2.500000e+00
m.xm2.msky130_fd_pr__pfet_g5v0d10v5#sbody = 2.500000e+00
m.xm3.msky130_fd_pr__pfet_g5v0d10v5#body = 2.500000e+00
m.xm3.msky130_fd_pr__pfet_g5v0d10v5#dbody = 2.500000e+00
m.xm3.msky130_fd_pr__pfet_g5v0d10v5#sbody = 2.500000e+00
m.xm4.msky130_fd_pr__pfet_g5v0d10v5#body = 2.500000e+00
m.xm4.msky130_fd_pr__pfet_g5v0d10v5#dbody = 2.500000e+00
m.xm4.msky130_fd_pr__pfet_g5v0d10v5#sbody = 2.500000e+00
m.xm5.msky130_fd_pr__pfet_g5v0d10v5#body = 2.500000e+00
m.xm5.msky130_fd_pr__pfet_g5v0d10v5#dbody = 2.500000e+00
m.xm5.msky130_fd_pr__pfet_g5v0d10v5#sbody = 2.500000e+00
m.xm6.msky130_fd_pr__nfet_g5v0d10v5#body = 1.082957e-11
m.xm6.msky130_fd_pr__nfet_g5v0d10v5#dbody = 2.707391e-11
m.xm6.msky130_fd_pr__nfet_g5v0d10v5#sbody = 5.414786e-12
m.xm7.msky130_fd_pr__pfet_g5v0d10v5#body = 2.500000e+00
m.xm7.msky130_fd_pr__pfet_g5v0d10v5#dbody = 2.500000e+00
m.xm7.msky130_fd_pr__pfet_g5v0d10v5#sbody = 2.500000e+00
m.xm8.msky130_fd_pr__pfet_g5v0d10v5#body = 2.500000e+00
m.xm8.msky130_fd_pr__pfet_g5v0d10v5#dbody = 2.500000e+00
m.xm8.msky130_fd_pr__pfet_g5v0d10v5#sbody = 2.500000e+00
m.xm9.msky130_fd_pr__nfet_g5v0d10v5#body = 1.873913e-11
m.xm9.msky130_fd_pr__nfet_g5v0d10v5#dbody = 4.681583e-11
m.xm9.msky130_fd_pr__nfet_g5v0d10v5#sbody = 9.400869e-12
m.xm10.msky130_fd_pr__nfet_g5v0d10v5#body = 1.599658e-11
m.xm10.msky130_fd_pr__nfet_g5v0d10v5#dbody = 3.996014e-11
m.xm10.msky130_fd_pr__nfet_g5v0d10v5#sbody = 8.029591e-12
m.xm11.msky130_fd_pr__pfet_g5v0d10v5#body = 2.500000e+00
m.xm11.msky130_fd_pr__pfet_g5v0d10v5#dbody = 2.500000e+00
m.xm11.msky130_fd_pr__pfet_g5v0d10v5#sbody = 2.500000e+00
m.xm12.msky130_fd_pr__pfet_g5v0d10v5#body = 2.500000e+00
m.xm12.msky130_fd_pr__pfet_g5v0d10v5#dbody = 2.500000e+00
m.xm12.msky130_fd_pr__pfet_g5v0d10v5#sbody = 2.500000e+00
m.xm13.msky130_fd_pr__nfet_g5v0d10v5#body = 1.564970e-14
m.xm13.msky130_fd_pr__nfet_g5v0d10v5#dbody = 3.912416e-14
m.xm13.msky130_fd_pr__nfet_g5v0d10v5#sbody = 7.824955e-15
m.xm14.msky130_fd_pr__pfet_g5v0d10v5#body = 2.500000e+00
m.xm14.msky130_fd_pr__pfet_g5v0d10v5#dbody = 2.500000e+00
m.xm14.msky130_fd_pr__pfet_g5v0d10v5#sbody = 2.500000e+00
m.xm15.msky130_fd_pr__nfet_g5v0d10v5#body = 9.212854e-12
m.xm15.msky130_fd_pr__nfet_g5v0d10v5#dbody = 2.303213e-11
m.xm15.msky130_fd_pr__nfet_g5v0d10v5#sbody = 4.606427e-12
m.xm16.msky130_fd_pr__nfet_g5v0d10v5#body = 4.118102e-11
m.xm16.msky130_fd_pr__nfet_g5v0d10v5#dbody = 8.309062e-11
m.xm16.msky130_fd_pr__nfet_g5v0d10v5#sbody = 4.045242e-11
m.xm17.msky130_fd_pr__pfet_g5v0d10v5#body = 2.500000e+00
m.xm17.msky130_fd_pr__pfet_g5v0d10v5#dbody = 2.500000e+00
m.xm17.msky130_fd_pr__pfet_g5v0d10v5#sbody = 2.500000e+00
m.xm18.msky130_fd_pr__nfet_g5v0d10v5#body = 1.334818e-11
m.xm18.msky130_fd_pr__nfet_g5v0d10v5#dbody = 3.337044e-11
m.xm18.msky130_fd_pr__nfet_g5v0d10v5#sbody = 6.674096e-12
m.xm19.msky130_fd_pr__nfet_g5v0d10v5#body = 1.649737e-11
m.xm19.msky130_fd_pr__nfet_g5v0d10v5#dbody = 4.019858e-11
m.xm19.msky130_fd_pr__nfet_g5v0d10v5#sbody = 9.293414e-12
m.xm20.msky130_fd_pr__nfet_g5v0d10v5#body = 1.077951e-11
m.xm20.msky130_fd_pr__nfet_g5v0d10v5#dbody = 2.694877e-11
m.xm20.msky130_fd_pr__nfet_g5v0d10v5#sbody = 5.389762e-12
m.xm22.msky130_fd_pr__nfet_g5v0d10v5#body = 5.223936e-13
m.xm22.msky130_fd_pr__nfet_g5v0d10v5#dbody = 1.305983e-12
m.xm22.msky130_fd_pr__nfet_g5v0d10v5#sbody = 2.611981e-13
m.xm24.msky130_fd_pr__pfet_g5v0d10v5#body = 2.500000e+00
m.xm24.msky130_fd_pr__pfet_g5v0d10v5#dbody = 2.500000e+00
m.xm24.msky130_fd_pr__pfet_g5v0d10v5#sbody = 2.500000e+00
m.xm26.msky130_fd_pr__pfet_g5v0d10v5#body = 2.500000e+00
m.xm26.msky130_fd_pr__pfet_g5v0d10v5#dbody = 2.500000e+00
m.xm26.msky130_fd_pr__pfet_g5v0d10v5#sbody = 2.500000e+00
mir = 1.222411e+00
net1 = 6.088787e-01
net2 = 7.370133e-01
net3 = 6.093541e-01
net4 = 4.178531e-02
net5 = 1.277991e+00
net6 = 8.663576e-01
net7 = 6.089519e-01
net8 = 1.278471e+00
net9 = 1.497847e+00
net10 = 1.251892e-03
net11 = 1.067852e+00
net12 = 1.067852e+00
net13 = 0.000000e+00
out = 1.067852e+00
pos = 5.774846e-01
q.xq2.qsky130_fd_pr__pnp_05v5_w0p68l0p68#collcx = 3.235161e-07
q.xq3.qsky130_fd_pr__pnp_05v5_w0p68l0p68#collcx = 3.172581e-07
q.xq4.qsky130_fd_pr__pnp_05v5_w0p68l0p68#collcx = 3.172581e-07
q.xq8.qsky130_fd_pr__pnp_05v5_w0p68l0p68#collcx = 3.172581e-07
q.xq10.qsky130_fd_pr__pnp_05v5_w0p68l0p68#collcx = 3.172581e-07
q.xq12.qsky130_fd_pr__pnp_05v5_w0p68l0p68#collcx = 3.172581e-07
q.xq14.qsky130_fd_pr__pnp_05v5_w0p68l0p68#collcx = 3.172581e-07
q.xq16.qsky130_fd_pr__pnp_05v5_w0p68l0p68#collcx = 3.172581e-07
q.xq18.qsky130_fd_pr__pnp_05v5_w0p68l0p68#collcx = 3.172581e-07
vb = 8.623590e-01
vdd = 2.500000e+00
vs#branch = -5.27930e-02
vt#branch = 0.000000e+00
xc1.a = 0.000000e+00
xc1.b1 = 0.000000e+00
xc3.a = 1.067852e+00
xc3.b1 = 1.067852e+00
xr1.xsky130_fd_pr__res_xhigh_po_0p69.ra = 6.104252e-01
xr2.xsky130_fd_pr__res_xhigh_po_0p69.ra = 6.108274e-01
xr3.xsky130_fd_pr__res_xhigh_po_0p69.ra = 1.511691e-03
xr4.xsky130_fd_pr__res_xhigh_po_0p69.ra = 6.088798e-01
xr5.xsky130_fd_pr__res_xhigh_po_0p69.ra = 1.510645e-03
xr6.xsky130_fd_pr__res_xhigh_po_0p69.ra = 1.523454e-03
xr7.xsky130_fd_pr__res_xhigh_po_0p69.ra = 1.067852e+00
xr8.xsky130_fd_pr__res_xhigh_po_0p69.ra = 5.798493e-01
xr9.xsky130_fd_pr__res_xhigh_po_0p69.ra = 2.399423e-03
Doing analysis at TEMP = 0.000000 and TNOM = 27.000000


No. of Data Rows : 91
Error: no such vector PM
Note: Starting true gmin stepping
Trying gmin =   1.0000E-03 Note: One successful gmin step
Trying gmin =   1.0000E-04 Note: One successful gmin step
Trying gmin =   1.0000E-05 Note: One successful gmin step
Trying gmin =   1.0000E-06 Note: One successful gmin step
Trying gmin =   1.0000E-07 Note: One successful gmin step
Trying gmin =   1.0000E-08 Warning: Further gmin increment
Trying gmin =   5.6234E-08 Note: One successful gmin step
Trying gmin =   2.3714E-08 Warning: Further gmin increment
Trying gmin =   4.5316E-08 Note: One successful gmin step
Trying gmin =   3.6517E-08 Note: One successful gmin step
Trying gmin =   2.6416E-08 Note: One successful gmin step
Trying gmin =   1.6253E-08 Note: One successful gmin step
Trying gmin =   7.8439E-09 Note: One successful gmin step
Trying gmin =   2.6298E-09 Note: One successful gmin step
Trying gmin =   5.1051E-10 Note: One successful gmin step
Trying gmin =   5.1051E-11 Note: One successful gmin step
Trying gmin =   5.1051E-12 Note: One successful gmin step
Trying gmin =   1.0000E-12 Note: One successful gmin step
Note: True gmin stepping completed
 Reference value :  2.80000e+00Note: Starting true gmin stepping
Trying gmin =   1.0000E-03 Note: One successful gmin step
Trying gmin =   1.0000E-04 Note: One successful gmin step
Trying gmin =   1.0000E-05 Note: One successful gmin step
Trying gmin =   1.0000E-06 Note: One successful gmin step
Trying gmin =   1.0000E-07 Note: One successful gmin step
Trying gmin =   1.0000E-08 Warning: Further gmin increment
Trying gmin =   5.6234E-08 Note: One successful gmin step
Trying gmin =   2.3714E-08 Note: One successful gmin step
Trying gmin =   6.4938E-09 Warning: Further gmin increment
Trying gmin =   1.7154E-08 Note: One successful gmin step
Trying gmin =   1.2409E-08 Note: One successful gmin step
Trying gmin =   7.6351E-09 Note: One successful gmin step
Trying gmin =   3.6847E-09 Note: One successful gmin step
Trying gmin =   1.2354E-09 Note: One successful gmin step
Trying gmin =   2.3982E-10 Note: One successful gmin step
Trying gmin =   2.3982E-11 Note: One successful gmin step
Trying gmin =   2.3982E-12 Note: One successful gmin step
Trying gmin =   1.0000E-12 Note: One successful gmin step
Note: True gmin stepping completed
Note: Starting true gmin stepping
Trying gmin =   1.0000E-03 Note: One successful gmin step
Trying gmin =   1.0000E-04 Note: One successful gmin step
Trying gmin =   1.0000E-05 Note: One successful gmin step
Trying gmin =   1.0000E-06 Note: One successful gmin step
Trying gmin =   1.0000E-07 Note: One successful gmin step
Trying gmin =   1.0000E-08 Note: One successful gmin step
Trying gmin =   1.0000E-09 Warning: Further gmin increment
Trying gmin =   5.6234E-09 Note: One successful gmin step
Trying gmin =   2.3714E-09 Note: One successful gmin step
Trying gmin =   6.4938E-10 Note: One successful gmin step
Trying gmin =   9.3057E-11 Note: One successful gmin step
Trying gmin =   9.3057E-12 Note: One successful gmin step
Trying gmin =   1.0000E-12 Note: One successful gmin step
Note: True gmin stepping completed
 Reference value :  1.42000e+00Note: Starting true gmin stepping
Trying gmin =   1.0000E-03 Note: One successful gmin step
Trying gmin =   1.0000E-04 Note: One successful gmin step
Trying gmin =   1.0000E-05 Note: One successful gmin step
Trying gmin =   1.0000E-06 Note: One successful gmin step
Trying gmin =   1.0000E-07 Note: One successful gmin step
Trying gmin =   1.0000E-08 Note: One successful gmin step
Trying gmin =   1.0000E-09 Note: One successful gmin step
Trying gmin =   1.0000E-10 Note: One successful gmin step
Trying gmin =   1.0000E-11 Note: One successful gmin step
Trying gmin =   1.0000E-12 Warning: Further gmin increment
Trying gmin =   5.6234E-12 Note: One successful gmin step
Trying gmin =   2.3714E-12 Note: One successful gmin step
Trying gmin =   1.0000E-12 Warning: Further gmin increment
Trying gmin =   1.9110E-12 Note: One successful gmin step
Trying gmin =   1.3824E-12 Note: One successful gmin step
Trying gmin =   1.0000E-12 Warning: Further gmin increment
Trying gmin =   1.2749E-12 Note: One successful gmin step
Trying gmin =   1.1291E-12 Note: One successful gmin step
Trying gmin =   1.0000E-12 Note: One successful gmin step
Warning: True gmin stepping failed
Note: Starting dynamic gmin stepping
Trying gmin =   1.0000E-03 Note: One successful gmin step
Trying gmin =   1.0000E-04 Note: One successful gmin step
Trying gmin =   1.0000E-05 Note: One successful gmin step
Trying gmin =   1.0000E-06 Note: One successful gmin step
Trying gmin =   1.0000E-07 Note: One successful gmin step
Trying gmin =   1.0000E-08 Note: One successful gmin step
Trying gmin =   1.0000E-09 Note: One successful gmin step
Trying gmin =   1.0000E-10 Note: One successful gmin step
Trying gmin =   1.0000E-11 Note: One successful gmin step
Trying gmin =   1.0000E-12 Note: One successful gmin step
Trying gmin =   1.0000E-12 Note: One successful gmin step
Note: Dynamic gmin stepping completed
 Reference value :  4.00000e-02
Error: measure  pm  (AT) : out of interval
 meas ac pm find p when vdb(ldo_out)=0 failed!

Doing analysis at TEMP = 0.000000 and TNOM = 27.000000


No. of Data Rows : 91
psrr100             =  -3.605745e+01
psrr100k            =  -9.096029e+00
Doing analysis at TEMP = 0.000000 and TNOM = 27.000000


No. of Data Rows : 86
temp_coeff = 7.452803e+01
Doing analysis at TEMP = 0.000000 and TNOM = 27.000000


No. of Data Rows : 141
vldo_sup_2          =  2.054174e+00
vldo_sup_2_8        =  2.791007e+00
line_reg = 9.210412e-01
Note: No ".plot", ".print", or ".fourier" lines; no simulations run
vin                 =  1.648813e+00
dropout = -1.15187e-01
