 Reference value :  0.00000e+00
No compatibility mode selected!


Circuit: * ldo netlist 

Doing analysis at TEMP = 27.000000 and TNOM = 27.000000


No. of Data Rows : 1
bg_out = 1.194132e+00
inn = 1.224933e+00
inp = 1.224919e+00
l1#branch = 0.000000e+00
ldo_out = 1.796167e+00
m.xm1.msky130_fd_pr__nfet_g5v0d10v5#body = 1.969255e-11
m.xm1.msky130_fd_pr__nfet_g5v0d10v5#dbody = 4.196782e-11
m.xm1.msky130_fd_pr__nfet_g5v0d10v5#sbody = 1.710983e-11
m.xm2.msky130_fd_pr__pfet_g5v0d10v5#body = 2.500000e+00
m.xm2.msky130_fd_pr__pfet_g5v0d10v5#dbody = 2.500000e+00
m.xm2.msky130_fd_pr__pfet_g5v0d10v5#sbody = 2.500000e+00
m.xm3.msky130_fd_pr__pfet_g5v0d10v5#body = 2.500000e+00
m.xm3.msky130_fd_pr__pfet_g5v0d10v5#dbody = 2.500000e+00
m.xm3.msky130_fd_pr__pfet_g5v0d10v5#sbody = 2.500000e+00
m.xm4.msky130_fd_pr__pfet_g5v0d10v5#body = 2.500000e+00
m.xm4.msky130_fd_pr__pfet_g5v0d10v5#dbody = 2.500000e+00
m.xm4.msky130_fd_pr__pfet_g5v0d10v5#sbody = 2.500000e+00
m.xm5.msky130_fd_pr__pfet_g5v0d10v5#body = 2.500000e+00
m.xm5.msky130_fd_pr__pfet_g5v0d10v5#dbody = 2.500000e+00
m.xm5.msky130_fd_pr__pfet_g5v0d10v5#sbody = 2.500000e+00
m.xm6.msky130_fd_pr__nfet_g5v0d10v5#body = 1.175952e-11
m.xm6.msky130_fd_pr__nfet_g5v0d10v5#dbody = 2.939881e-11
m.xm6.msky130_fd_pr__nfet_g5v0d10v5#sbody = 5.879767e-12
m.xm7.msky130_fd_pr__pfet_g5v0d10v5#body = 2.500000e+00
m.xm7.msky130_fd_pr__pfet_g5v0d10v5#dbody = 2.500000e+00
m.xm7.msky130_fd_pr__pfet_g5v0d10v5#sbody = 2.500000e+00
m.xm8.msky130_fd_pr__pfet_g5v0d10v5#body = 2.500000e+00
m.xm8.msky130_fd_pr__pfet_g5v0d10v5#dbody = 2.500000e+00
m.xm8.msky130_fd_pr__pfet_g5v0d10v5#sbody = 2.500000e+00
m.xm9.msky130_fd_pr__nfet_g5v0d10v5#body = 2.032443e-11
m.xm9.msky130_fd_pr__nfet_g5v0d10v5#dbody = 4.446100e-11
m.xm9.msky130_fd_pr__nfet_g5v0d10v5#sbody = 1.651230e-11
m.xm10.msky130_fd_pr__nfet_g5v0d10v5#body = 2.019591e-11
m.xm10.msky130_fd_pr__nfet_g5v0d10v5#dbody = 4.413969e-11
m.xm10.msky130_fd_pr__nfet_g5v0d10v5#sbody = 1.644804e-11
m.xm11.msky130_fd_pr__pfet_g5v0d10v5#body = 2.500000e+00
m.xm11.msky130_fd_pr__pfet_g5v0d10v5#dbody = 2.500000e+00
m.xm11.msky130_fd_pr__pfet_g5v0d10v5#sbody = 2.500000e+00
m.xm12.msky130_fd_pr__pfet_g5v0d10v5#body = 2.500000e+00
m.xm12.msky130_fd_pr__pfet_g5v0d10v5#dbody = 2.500000e+00
m.xm12.msky130_fd_pr__pfet_g5v0d10v5#sbody = 2.500000e+00
m.xm13.msky130_fd_pr__nfet_g5v0d10v5#body = 3.173683e-12
m.xm13.msky130_fd_pr__nfet_g5v0d10v5#dbody = 7.934196e-12
m.xm13.msky130_fd_pr__nfet_g5v0d10v5#sbody = 1.586852e-12
m.xm14.msky130_fd_pr__pfet_g5v0d10v5#body = 2.500000e+00
m.xm14.msky130_fd_pr__pfet_g5v0d10v5#dbody = 2.500000e+00
m.xm14.msky130_fd_pr__pfet_g5v0d10v5#sbody = 2.500000e+00
m.xm15.msky130_fd_pr__nfet_g5v0d10v5#body = 6.353569e-16
m.xm15.msky130_fd_pr__nfet_g5v0d10v5#dbody = 1.588350e-15
m.xm15.msky130_fd_pr__nfet_g5v0d10v5#sbody = 3.177208e-16
m.xm16.msky130_fd_pr__nfet_g5v0d10v5#body = 4.657036e-11
m.xm16.msky130_fd_pr__nfet_g5v0d10v5#dbody = 8.579387e-11
m.xm16.msky130_fd_pr__nfet_g5v0d10v5#sbody = 5.391720e-11
m.xm17.msky130_fd_pr__pfet_g5v0d10v5#body = 2.500000e+00
m.xm17.msky130_fd_pr__pfet_g5v0d10v5#dbody = 2.500000e+00
m.xm17.msky130_fd_pr__pfet_g5v0d10v5#sbody = 2.500000e+00
m.xm18.msky130_fd_pr__nfet_g5v0d10v5#body = 1.284712e-11
m.xm18.msky130_fd_pr__nfet_g5v0d10v5#dbody = 3.211780e-11
m.xm18.msky130_fd_pr__nfet_g5v0d10v5#sbody = 6.423574e-12
m.xm19.msky130_fd_pr__nfet_g5v0d10v5#body = 1.971733e-11
m.xm19.msky130_fd_pr__nfet_g5v0d10v5#dbody = 4.202976e-11
m.xm19.msky130_fd_pr__nfet_g5v0d10v5#sbody = 1.712222e-11
m.xm20.msky130_fd_pr__nfet_g5v0d10v5#body = 1.203144e-11
m.xm20.msky130_fd_pr__nfet_g5v0d10v5#dbody = 3.007858e-11
m.xm20.msky130_fd_pr__nfet_g5v0d10v5#sbody = 6.015732e-12
m.xm22.msky130_fd_pr__nfet_g5v0d10v5#body = 3.634491e-12
m.xm22.msky130_fd_pr__nfet_g5v0d10v5#dbody = 9.086222e-12
m.xm22.msky130_fd_pr__nfet_g5v0d10v5#sbody = 1.817250e-12
m.xm24.msky130_fd_pr__pfet_g5v0d10v5#body = 2.500000e+00
m.xm24.msky130_fd_pr__pfet_g5v0d10v5#dbody = 2.500000e+00
m.xm24.msky130_fd_pr__pfet_g5v0d10v5#sbody = 2.500000e+00
m.xm26.msky130_fd_pr__pfet_g5v0d10v5#body = 2.500000e+00
m.xm26.msky130_fd_pr__pfet_g5v0d10v5#dbody = 2.500000e+00
m.xm26.msky130_fd_pr__pfet_g5v0d10v5#sbody = 2.500000e+00
mir = 1.284514e+00
net1 = 7.262760e-01
net2 = 4.888708e-05
net3 = 7.859789e-01
net4 = 2.901945e-01
net5 = 1.286496e+00
net6 = 9.401971e-01
net7 = 7.859641e-01
net8 = 1.361430e+00
net9 = 1.371712e+00
net10 = 2.537641e-01
net11 = 1.027639e+00
net12 = 1.027639e+00
net13 = 0.000000e+00
out = 1.027639e+00
pos = 1.194225e+00
q.xq2.qsky130_fd_pr__pnp_05v5_w0p68l0p68#collcx = 2.182556e-03
q.xq3.qsky130_fd_pr__pnp_05v5_w0p68l0p68#collcx = 2.749338e-04
q.xq4.qsky130_fd_pr__pnp_05v5_w0p68l0p68#collcx = 2.749338e-04
q.xq8.qsky130_fd_pr__pnp_05v5_w0p68l0p68#collcx = 2.749338e-04
q.xq10.qsky130_fd_pr__pnp_05v5_w0p68l0p68#collcx = 2.749338e-04
q.xq12.qsky130_fd_pr__pnp_05v5_w0p68l0p68#collcx = 2.749338e-04
q.xq14.qsky130_fd_pr__pnp_05v5_w0p68l0p68#collcx = 2.749338e-04
q.xq16.qsky130_fd_pr__pnp_05v5_w0p68l0p68#collcx = 2.749338e-04
q.xq18.qsky130_fd_pr__pnp_05v5_w0p68l0p68#collcx = 2.749338e-04
vb = 9.623845e-01
vdd = 2.500000e+00
vs#branch = -9.99133e-02
vt#branch = 0.000000e+00
xc1.a = 0.000000e+00
xc1.b1 = 0.000000e+00
xc3.a = 1.027639e+00
xc3.b1 = 1.027639e+00
xr1.xsky130_fd_pr__res_xhigh_po_0p69.ra = 7.912904e-01
xr2.xsky130_fd_pr__res_xhigh_po_0p69.ra = 7.913052e-01
xr3.xsky130_fd_pr__res_xhigh_po_0p69.ra = 3.606158e-03
xr4.xsky130_fd_pr__res_xhigh_po_0p69.ra = 7.280657e-01
xr5.xsky130_fd_pr__res_xhigh_po_0p69.ra = 3.606085e-03
xr6.xsky130_fd_pr__res_xhigh_po_0p69.ra = 5.661457e-03
xr7.xsky130_fd_pr__res_xhigh_po_0p69.ra = 1.027639e+00
xr8.xsky130_fd_pr__res_xhigh_po_0p69.ra = 1.203640e+00
xr9.xsky130_fd_pr__res_xhigh_po_0p69.ra = 9.873284e-03
Doing analysis at TEMP = 27.000000 and TNOM = 27.000000


No. of Data Rows : 91
Note: Starting true gmin stepping
Trying gmin =   1.0000E-03 Note: One successful gmin step
Trying gmin =   1.0000E-04 Note: One successful gmin step
Trying gmin =   1.0000E-05 Note: One successful gmin step
Trying gmin =   1.0000E-06 Note: One successful gmin step
Trying gmin =   1.0000E-07 Note: One successful gmin step
Trying gmin =   1.0000E-08 Warning: Further gmin increment
Trying gmin =   5.6234E-08 Warning: Further gmin increment
Trying gmin =   8.6596E-08 Note: One successful gmin step
Trying gmin =   6.9783E-08 Note: One successful gmin step
Trying gmin =   5.0481E-08 Warning: Further gmin increment
Trying gmin =   6.4357E-08 Note: One successful gmin step
Trying gmin =   5.6998E-08 Note: One successful gmin step
Trying gmin =   4.7507E-08 Warning: Further gmin increment
Trying gmin =   5.4461E-08 Warning: Further gmin increment
Trying gmin =   5.6353E-08 Note: One successful gmin step
Trying gmin =   5.5399E-08 Warning: Further gmin increment
Trying gmin =   5.6113E-08 Warning: Further gmin increment
Trying gmin =   5.6293E-08 Warning: Further gmin increment
Trying gmin =   5.6338E-08 Note: One successful gmin step
Trying gmin =   5.6315E-08 Warning: Further gmin increment
Trying gmin =   5.6332E-08 Note: One successful gmin step
Trying gmin =   5.6324E-08 Warning: Further gmin increment
Trying gmin =   5.6330E-08 Note: One successful gmin step
Trying gmin =   5.6327E-08 Note: One successful gmin step
Trying gmin =   5.6322E-08 Warning: Further gmin increment
Trying gmin =   5.6326E-08 Note: One successful gmin step
Trying gmin =   5.6324E-08 Warning: Last gmin step failed
Warning: True gmin stepping failed
Note: Starting dynamic gmin stepping
Trying gmin =   1.0000E-03 Note: One successful gmin step
Trying gmin =   1.0000E-04 Note: One successful gmin step
Trying gmin =   1.0000E-05 Note: One successful gmin step
Trying gmin =   1.0000E-06 Warning: Further gmin increment
Trying gmin =   5.6234E-06 Note: One successful gmin step
Trying gmin =   2.3714E-06 Note: One successful gmin step
Trying gmin =   1.0000E-06 Note: One successful gmin step
Trying gmin =   2.7384E-07 Note: One successful gmin step
Trying gmin =   3.9242E-08 Warning: Further gmin increment
Trying gmin =   1.6849E-07 Warning: Further gmin increment
Trying gmin =   2.4253E-07 Warning: Further gmin increment
Trying gmin =   2.6565E-07 Note: One successful gmin step
Trying gmin =   2.5383E-07 Warning: Further gmin increment
Trying gmin =   2.6265E-07 Note: One successful gmin step
Trying gmin =   2.5820E-07 Warning: Further gmin increment
Trying gmin =   2.6153E-07 Note: One successful gmin step
Trying gmin =   2.5986E-07 Warning: Further gmin increment
Trying gmin =   2.6111E-07 Note: One successful gmin step
Trying gmin =   2.6048E-07 Warning: Further gmin increment
Trying gmin =   2.6095E-07 Note: One successful gmin step
Trying gmin =   2.6072E-07 Note: One successful gmin step
Trying gmin =   2.6037E-07 Warning: Further gmin increment
Trying gmin =   2.6063E-07 Note: One successful gmin step
Trying gmin =   2.6050E-07 Warning: Further gmin increment
Trying gmin =   2.6060E-07 Note: One successful gmin step
Trying gmin =   2.6055E-07 Warning: Further gmin increment
Trying gmin =   2.6058E-07 Warning: Last gmin step failed
Warning: Dynamic gmin stepping failed
Note: Starting source stepping
Supplies reduced to   0.0000% Note: One successful source step
Supplies reduced to   0.1000% Note: One successful source step
Supplies reduced to   0.2000% Note: One successful source step
Supplies reduced to   0.3500% Note: One successful source step
Supplies reduced to   0.5750% Note: One successful source step
Supplies reduced to   0.9125% Note: One successful source step
Supplies reduced to   1.4188% Note: One successful source step
Supplies reduced to   2.1781% Note: One successful source step
Supplies reduced to   3.3172% Note: One successful source step
Supplies reduced to   5.0258% Note: One successful source step
Supplies reduced to   7.5887% Note: One successful source step
Supplies reduced to  11.4330% Note: One successful source step
Supplies reduced to  17.1995% Note: One successful source step
Supplies reduced to  25.8493% Note: One successful source step
Supplies reduced to  38.8239% Note: One successful source step
Supplies reduced to  45.3112% Supplies reduced to  38.8239% Note: One successful source step
Supplies reduced to  39.1483% Note: One successful source step
Supplies reduced to  39.6348% Note: One successful source step
Supplies reduced to  40.3646% Note: One successful source step
Supplies reduced to  41.4594% Note: One successful source step
Supplies reduced to  43.1015% Note: One successful source step
Supplies reduced to  45.5646% Note: One successful source step
Supplies reduced to  46.7962% Note: One successful source step
Supplies reduced to  48.6436% Note: One successful source step
Supplies reduced to  51.4146% Note: One successful source step
Supplies reduced to  55.5712% Note: One successful source step
Supplies reduced to  61.8060% Note: One successful source step
Supplies reduced to  71.1583% Note: One successful source step
Supplies reduced to  85.1868% Supplies reduced to  71.1583% Note: One successful source step
Supplies reduced to  72.1583% Note: One successful source step
Supplies reduced to  73.6583% Supplies reduced to  72.1583% Note: One successful source step
Supplies reduced to  72.3833% Note: One successful source step
Supplies reduced to  72.7208% Supplies reduced to  72.3833% Note: One successful source step
Supplies reduced to  72.4340% Note: One successful source step
Supplies reduced to  72.5099% Supplies reduced to  72.4340% Note: One successful source step
Supplies reduced to  72.4453% Note: One successful source step
Supplies reduced to  72.4624% Note: One successful source step
Supplies reduced to  72.4881% Supplies reduced to  72.4624% Note: One successful source step
Supplies reduced to  72.4663% Note: One successful source step
Supplies reduced to  72.4720% Supplies reduced to  72.4663% Note: One successful source step
Supplies reduced to  72.4671% Note: One successful source step
Supplies reduced to  72.4684% Note: One successful source step
Supplies reduced to  72.4704% Supplies reduced to  72.4684% Note: One successful source step
Supplies reduced to  72.4687% Note: One successful source step
Supplies reduced to  72.4692% Note: One successful source step
Supplies reduced to  72.4698% Supplies reduced to  72.4692% Note: One successful source step
Supplies reduced to  72.4693% Note: One successful source step
Supplies reduced to  72.4694% Note: One successful source step
Supplies reduced to  72.4696% Note: One successful source step
Supplies reduced to  72.4700% Supplies reduced to  72.4696% Note: One successful source step
Supplies reduced to  72.4697% Warning: source stepping failed
doAnalyses: Too many iterations without convergence

dc simulation(s) aborted
Error(parse.c--checkvalid): vldo_sup_2_8: zero length vector.
Error: RHS "abs((vldo_sup_2_8-vldo_sup_2)/0.8)" invalid
Error(parse.c--checkvalid): line_reg: zero length vector.
Error(parse.c--checkvalid): vin: zero length vector.
Error: RHS "vin-1.764" invalid
Error(parse.c--checkvalid): dropout: zero length vector.
Error: no such vector dropout
Note: No ".plot", ".print", or ".fourier" lines; no simulations run
pm                  =  3.282884e+01
Doing analysis at TEMP = 27.000000 and TNOM = 27.000000


No. of Data Rows : 91
psrr100             =  -8.454323e+01
psrr100k            =  -2.600103e+01
Doing analysis at TEMP = 27.000000 and TNOM = 27.000000


No. of Data Rows : 86
temp_coeff = 1.419556e+02
Doing analysis at TEMP = 27.000000 and TNOM = 27.000000


Error: measure  vldo_sup_2  (AT) : out of interval
 meas dc vldo_sup_2 find ldo_out at=2 failed!


Error: measure  vldo_sup_2_8  (AT) : out of interval
 meas dc vldo_sup_2_8 find ldo_out at=2.8 failed!


Error: measure  vin  (WHEN) : out of interval
 meas dc vin when v(ldo_out)=1.764 failed!

