 Reference value :  0.00000e+00
No compatibility mode selected!


Circuit: * ldo netlist 

Doing analysis at TEMP = 85.000000 and TNOM = 27.000000


No. of Data Rows : 1
bg_out = 1.193990e+00
inn = 1.137286e+00
inp = 1.137255e+00
l1#branch = 0.000000e+00
ldo_out = 1.796521e+00
m.xm1.msky130_fd_pr__nfet_g5v0d10v5#body = 2.709769e-11
m.xm1.msky130_fd_pr__nfet_g5v0d10v5#dbody = 4.951063e-11
m.xm1.msky130_fd_pr__nfet_g5v0d10v5#sbody = 3.178244e-11
m.xm2.msky130_fd_pr__pfet_g5v0d10v5#body = 2.100000e+00
m.xm2.msky130_fd_pr__pfet_g5v0d10v5#dbody = 2.100000e+00
m.xm2.msky130_fd_pr__pfet_g5v0d10v5#sbody = 2.100000e+00
m.xm3.msky130_fd_pr__pfet_g5v0d10v5#body = 2.100000e+00
m.xm3.msky130_fd_pr__pfet_g5v0d10v5#dbody = 2.100000e+00
m.xm3.msky130_fd_pr__pfet_g5v0d10v5#sbody = 2.100000e+00
m.xm4.msky130_fd_pr__pfet_g5v0d10v5#body = 2.100000e+00
m.xm4.msky130_fd_pr__pfet_g5v0d10v5#dbody = 2.100000e+00
m.xm4.msky130_fd_pr__pfet_g5v0d10v5#sbody = 2.100000e+00
m.xm5.msky130_fd_pr__pfet_g5v0d10v5#body = 2.100000e+00
m.xm5.msky130_fd_pr__pfet_g5v0d10v5#dbody = 2.100000e+00
m.xm5.msky130_fd_pr__pfet_g5v0d10v5#sbody = 2.100000e+00
m.xm6.msky130_fd_pr__nfet_g5v0d10v5#body = 1.928761e-11
m.xm6.msky130_fd_pr__nfet_g5v0d10v5#dbody = 4.821890e-11
m.xm6.msky130_fd_pr__nfet_g5v0d10v5#sbody = 9.643915e-12
m.xm7.msky130_fd_pr__pfet_g5v0d10v5#body = 2.100000e+00
m.xm7.msky130_fd_pr__pfet_g5v0d10v5#dbody = 2.100000e+00
m.xm7.msky130_fd_pr__pfet_g5v0d10v5#sbody = 2.100000e+00
m.xm8.msky130_fd_pr__pfet_g5v0d10v5#body = 2.100000e+00
m.xm8.msky130_fd_pr__pfet_g5v0d10v5#dbody = 2.100000e+00
m.xm8.msky130_fd_pr__pfet_g5v0d10v5#sbody = 2.100000e+00
m.xm9.msky130_fd_pr__nfet_g5v0d10v5#body = 2.531540e-11
m.xm9.msky130_fd_pr__nfet_g5v0d10v5#dbody = 4.768154e-11
m.xm9.msky130_fd_pr__nfet_g5v0d10v5#sbody = 2.826466e-11
m.xm10.msky130_fd_pr__nfet_g5v0d10v5#body = 2.509616e-11
m.xm10.msky130_fd_pr__nfet_g5v0d10v5#dbody = 4.713343e-11
m.xm10.msky130_fd_pr__nfet_g5v0d10v5#sbody = 2.815504e-11
m.xm11.msky130_fd_pr__pfet_g5v0d10v5#body = 2.100000e+00
m.xm11.msky130_fd_pr__pfet_g5v0d10v5#dbody = 2.100000e+00
m.xm11.msky130_fd_pr__pfet_g5v0d10v5#sbody = 2.100000e+00
m.xm12.msky130_fd_pr__pfet_g5v0d10v5#body = 2.100000e+00
m.xm12.msky130_fd_pr__pfet_g5v0d10v5#dbody = 2.100000e+00
m.xm12.msky130_fd_pr__pfet_g5v0d10v5#sbody = 2.100000e+00
m.xm13.msky130_fd_pr__nfet_g5v0d10v5#body = 6.155802e-12
m.xm13.msky130_fd_pr__nfet_g5v0d10v5#dbody = 1.538944e-11
m.xm13.msky130_fd_pr__nfet_g5v0d10v5#sbody = 3.077969e-12
m.xm14.msky130_fd_pr__pfet_g5v0d10v5#body = 2.100000e+00
m.xm14.msky130_fd_pr__pfet_g5v0d10v5#dbody = 2.100000e+00
m.xm14.msky130_fd_pr__pfet_g5v0d10v5#sbody = 2.100000e+00
m.xm15.msky130_fd_pr__nfet_g5v0d10v5#body = 3.779503e-15
m.xm15.msky130_fd_pr__nfet_g5v0d10v5#dbody = 9.448460e-15
m.xm15.msky130_fd_pr__nfet_g5v0d10v5#sbody = 1.890049e-15
m.xm16.msky130_fd_pr__nfet_g5v0d10v5#body = 5.096868e-11
m.xm16.msky130_fd_pr__nfet_g5v0d10v5#dbody = 8.848695e-11
m.xm16.msky130_fd_pr__nfet_g5v0d10v5#sbody = 6.441910e-11
m.xm17.msky130_fd_pr__pfet_g5v0d10v5#body = 2.100000e+00
m.xm17.msky130_fd_pr__pfet_g5v0d10v5#dbody = 2.100000e+00
m.xm17.msky130_fd_pr__pfet_g5v0d10v5#sbody = 2.100000e+00
m.xm18.msky130_fd_pr__nfet_g5v0d10v5#body = 2.085668e-11
m.xm18.msky130_fd_pr__nfet_g5v0d10v5#dbody = 5.212297e-11
m.xm18.msky130_fd_pr__nfet_g5v0d10v5#sbody = 1.042842e-11
m.xm19.msky130_fd_pr__nfet_g5v0d10v5#body = 2.713531e-11
m.xm19.msky130_fd_pr__nfet_g5v0d10v5#dbody = 4.960468e-11
m.xm19.msky130_fd_pr__nfet_g5v0d10v5#sbody = 3.180125e-11
m.xm20.msky130_fd_pr__nfet_g5v0d10v5#body = 1.269624e-11
m.xm20.msky130_fd_pr__nfet_g5v0d10v5#dbody = 3.174053e-11
m.xm20.msky130_fd_pr__nfet_g5v0d10v5#sbody = 6.348195e-12
m.xm22.msky130_fd_pr__nfet_g5v0d10v5#body = 1.241210e-11
m.xm22.msky130_fd_pr__nfet_g5v0d10v5#dbody = 3.103013e-11
m.xm22.msky130_fd_pr__nfet_g5v0d10v5#sbody = 6.206157e-12
m.xm24.msky130_fd_pr__pfet_g5v0d10v5#body = 2.100000e+00
m.xm24.msky130_fd_pr__pfet_g5v0d10v5#dbody = 2.100000e+00
m.xm24.msky130_fd_pr__pfet_g5v0d10v5#sbody = 2.100000e+00
m.xm26.msky130_fd_pr__pfet_g5v0d10v5#body = 2.100000e+00
m.xm26.msky130_fd_pr__pfet_g5v0d10v5#dbody = 2.100000e+00
m.xm26.msky130_fd_pr__pfet_g5v0d10v5#sbody = 2.100000e+00
mir = 1.018367e+00
net1 = 6.225752e-01
net2 = 7.306034e-06
net3 = 6.963083e-01
net4 = 3.092779e-01
net5 = 1.021377e+00
net6 = 8.592562e-01
net7 = 6.962768e-01
net8 = 1.095132e+00
net9 = 1.112671e+00
net10 = 3.360078e-01
net11 = 1.511325e+00
net12 = 1.511325e+00
net13 = 0.000000e+00
out = 1.511325e+00
pos = 1.194218e+00
q.xq2.qsky130_fd_pr__pnp_05v5_w0p68l0p68#collcx = 3.025550e-03
q.xq3.qsky130_fd_pr__pnp_05v5_w0p68l0p68#collcx = 3.806764e-04
q.xq4.qsky130_fd_pr__pnp_05v5_w0p68l0p68#collcx = 3.806764e-04
q.xq8.qsky130_fd_pr__pnp_05v5_w0p68l0p68#collcx = 3.806764e-04
q.xq10.qsky130_fd_pr__pnp_05v5_w0p68l0p68#collcx = 3.806764e-04
q.xq12.qsky130_fd_pr__pnp_05v5_w0p68l0p68#collcx = 3.806764e-04
q.xq14.qsky130_fd_pr__pnp_05v5_w0p68l0p68#collcx = 3.806764e-04
q.xq16.qsky130_fd_pr__pnp_05v5_w0p68l0p68#collcx = 3.806764e-04
q.xq18.qsky130_fd_pr__pnp_05v5_w0p68l0p68#collcx = 3.806764e-04
vb = 8.592363e-01
vdd = 2.100000e+00
vs#branch = -1.87980e-04
vt#branch = 0.000000e+00
xc1.a = 0.000000e+00
xc1.b1 = 0.000000e+00
xc3.a = 1.511325e+00
xc3.b1 = 1.511325e+00
xr1.xsky130_fd_pr__res_xhigh_po_0p69.ra = 7.020638e-01
xr2.xsky130_fd_pr__res_xhigh_po_0p69.ra = 7.020954e-01
xr3.xsky130_fd_pr__res_xhigh_po_0p69.ra = 3.431200e-03
xr4.xsky130_fd_pr__res_xhigh_po_0p69.ra = 6.249614e-01
xr5.xsky130_fd_pr__res_xhigh_po_0p69.ra = 3.431035e-03
xr6.xsky130_fd_pr__res_xhigh_po_0p69.ra = 6.125103e-03
xr7.xsky130_fd_pr__res_xhigh_po_0p69.ra = 1.511325e+00
xr8.xsky130_fd_pr__res_xhigh_po_0p69.ra = 1.204402e+00
xr9.xsky130_fd_pr__res_xhigh_po_0p69.ra = 1.068007e-02
Doing analysis at TEMP = 85.000000 and TNOM = 27.000000


No. of Data Rows : 91
Note: Starting true gmin stepping
Trying gmin =   1.0000E-03 Note: One successful gmin step
Trying gmin =   1.0000E-04 Note: One successful gmin step
Trying gmin =   1.0000E-05 Note: One successful gmin step
Trying gmin =   1.0000E-06 Note: One successful gmin step
Trying gmin =   1.0000E-07 Note: One successful gmin step
Trying gmin =   1.0000E-08 Warning: Further gmin increment
Trying gmin =   5.6234E-08 Note: One successful gmin step
Trying gmin =   2.3714E-08 Warning: Further gmin increment
Trying gmin =   4.5316E-08 Warning: Further gmin increment
Trying gmin =   5.3280E-08 Warning: Further gmin increment
Trying gmin =   5.5481E-08 Warning: Further gmin increment
Trying gmin =   5.6045E-08 Warning: Further gmin increment
Trying gmin =   5.6187E-08 Note: One successful gmin step
Trying gmin =   5.6116E-08 Warning: Further gmin increment
Trying gmin =   5.6169E-08 Note: One successful gmin step
Trying gmin =   5.6142E-08 Note: One successful gmin step
Trying gmin =   5.6102E-08 Warning: Further gmin increment
Trying gmin =   5.6132E-08 Warning: Further gmin increment
Trying gmin =   5.6140E-08 Note: One successful gmin step
Trying gmin =   5.6136E-08 Note: One successful gmin step
Trying gmin =   5.6130E-08 Warning: Further gmin increment
Trying gmin =   5.6135E-08 Warning: Last gmin step failed
Error: -4.80679e+162, 2 out of range for ^
Warning: True gmin stepping failed
Note: Starting dynamic gmin stepping
Trying gmin =   1.0000E-03 Note: One successful gmin step
Trying gmin =   1.0000E-04 Note: One successful gmin step
Trying gmin =   1.0000E-05 Warning: Further gmin increment
Trying gmin =   5.6234E-05 Note: One successful gmin step
Trying gmin =   2.3714E-05 Note: One successful gmin step
Trying gmin =   6.4938E-06 Warning: Further gmin increment
Trying gmin =   1.7154E-05 Note: One successful gmin step
Trying gmin =   1.0554E-05 Warning: Further gmin increment
Trying gmin =   1.5193E-05 Note: One successful gmin step
Trying gmin =   1.2663E-05 Warning: Further gmin increment
Trying gmin =   1.4517E-05 Note: One successful gmin step
Trying gmin =   1.3558E-05 Note: One successful gmin step
Trying gmin =   1.2238E-05 Note: One successful gmin step
Trying gmin =   1.0495E-05 Note: One successful gmin step
Trying gmin =   8.3340E-06 Note: One successful gmin step
Trying gmin =   5.8977E-06 Note: One successful gmin step
Trying gmin =   3.5110E-06 Note: One successful gmin step
Trying gmin =   1.6127E-06 Note: One successful gmin step
Trying gmin =   5.0203E-07 Note: One successful gmin step
Trying gmin =   8.7195E-08 Warning: Further gmin increment
Trying gmin =   3.2409E-07 Note: One successful gmin step
Trying gmin =   1.6811E-07 Warning: Further gmin increment
Trying gmin =   2.7504E-07 Note: One successful gmin step
Trying gmin =   2.1502E-07 Warning: Further gmin increment
Trying gmin =   2.5862E-07 Note: One successful gmin step
Trying gmin =   2.3582E-07 Warning: Further gmin increment
Trying gmin =   2.5272E-07 Warning: Further gmin increment
Trying gmin =   2.5714E-07 Warning: Further gmin increment
Trying gmin =   2.5825E-07 Note: One successful gmin step
Trying gmin =   2.5769E-07 Warning: Further gmin increment
Trying gmin =   2.5811E-07 Warning: Further gmin increment
Trying gmin =   2.5822E-07 Note: One successful gmin step
Trying gmin =   2.5816E-07 Warning: Further gmin increment
Trying gmin =   2.5820E-07 Warning: Further gmin increment
Trying gmin =   2.5821E-07 Note: One successful gmin step
Trying gmin =   2.5821E-07 Note: One successful gmin step
Trying gmin =   2.5820E-07 Note: One successful gmin step
Trying gmin =   2.5819E-07 Note: One successful gmin step
Trying gmin =   2.5817E-07 Note: One successful gmin step
Trying gmin =   2.5814E-07 Note: One successful gmin step
Trying gmin =   2.5810E-07 Note: One successful gmin step
Trying gmin =   2.5803E-07 Note: One successful gmin step
Trying gmin =   2.5793E-07 Note: One successful gmin step
Trying gmin =   2.5779E-07 Note: One successful gmin step
Trying gmin =   2.5757E-07 Note: One successful gmin step
Trying gmin =   2.5724E-07 Note: One successful gmin step
Trying gmin =   2.5674E-07 Note: One successful gmin step
Trying gmin =   2.5600E-07 Note: One successful gmin step
Trying gmin =   2.5490E-07 Note: One successful gmin step
Trying gmin =   2.5325E-07 Note: One successful gmin step
Trying gmin =   2.5080E-07 Note: One successful gmin step
Trying gmin =   2.4716E-07 Note: One successful gmin step
Trying gmin =   2.4181E-07 Note: One successful gmin step
Trying gmin =   2.3400E-07 Note: One successful gmin step
Trying gmin =   2.2275E-07 Note: One successful gmin step
Trying gmin =   2.0688E-07 Note: One successful gmin step
Trying gmin =   1.8518E-07 Note: One successful gmin step
Trying gmin =   1.5681E-07 Note: One successful gmin step
Trying gmin =   1.2220E-07 Note: One successful gmin step
Trying gmin =   8.4065E-08 Note: One successful gmin step
Trying gmin =   4.7965E-08 Note: One successful gmin step
Trying gmin =   2.0672E-08 Note: One successful gmin step
Trying gmin =   5.8489E-09 Note: One successful gmin step
Trying gmin =   8.8027E-10 Note: One successful gmin step
Trying gmin =   8.8027E-11 Note: One successful gmin step
Trying gmin =   8.8027E-12 Note: One successful gmin step
Trying gmin =   1.0000E-12 Note: One successful gmin step
Note: Dynamic gmin stepping completed
 Reference value :  2.80000e+00Note: Starting true gmin stepping
Trying gmin =   1.0000E-03 Note: One successful gmin step
Trying gmin =   1.0000E-04 Note: One successful gmin step
Trying gmin =   1.0000E-05 Note: One successful gmin step
Trying gmin =   1.0000E-06 Note: One successful gmin step
Trying gmin =   1.0000E-07 Note: One successful gmin step
Trying gmin =   1.0000E-08 Warning: Further gmin increment
Trying gmin =   5.6234E-08 Note: One successful gmin step
Trying gmin =   2.3714E-08 Note: One successful gmin step
Trying gmin =   6.4938E-09 Warning: Further gmin increment
Trying gmin =   1.7154E-08 Note: One successful gmin step
Trying gmin =   1.0554E-08 Note: One successful gmin step
Trying gmin =   5.0937E-09 Note: One successful gmin step
Trying gmin =   1.7077E-09 Note: One successful gmin step
Trying gmin =   3.3152E-10 Note: One successful gmin step
Trying gmin =   3.3152E-11 Note: One successful gmin step
Trying gmin =   3.3152E-12 Note: One successful gmin step
Trying gmin =   1.0000E-12 Note: One successful gmin step
Note: True gmin stepping completed
Note: Starting true gmin stepping
Trying gmin =   1.0000E-03 Note: One successful gmin step
Trying gmin =   1.0000E-04 Note: One successful gmin step
Trying gmin =   1.0000E-05 Note: One successful gmin step
Trying gmin =   1.0000E-06 Note: One successful gmin step
Trying gmin =   1.0000E-07 Note: One successful gmin step
Trying gmin =   1.0000E-08 Warning: Further gmin increment
Trying gmin =   5.6234E-08 Note: One successful gmin step
Trying gmin =   3.1623E-08 Note: One successful gmin step
Trying gmin =   1.3335E-08 Note: One successful gmin step
Trying gmin =   3.6517E-09 Note: One successful gmin step
Trying gmin =   5.2330E-10 Note: One successful gmin step
Trying gmin =   5.2330E-11 Note: One successful gmin step
Trying gmin =   5.2330E-12 Note: One successful gmin step
Trying gmin =   1.0000E-12 Note: One successful gmin step
Note: True gmin stepping completed
 Reference value :  1.16000e+00pm                  =  6.059064e+01
Doing analysis at TEMP = 85.000000 and TNOM = 27.000000


No. of Data Rows : 91
psrr100             =  -4.793245e+01
psrr100k            =  -2.579444e+01
Doing analysis at TEMP = 85.000000 and TNOM = 27.000000


No. of Data Rows : 86
temp_coeff = 9.731886e+01
Doing analysis at TEMP = 85.000000 and TNOM = 27.000000


No. of Data Rows : 141
vldo_sup_2          =  1.796065e+00
vldo_sup_2_8        =  1.798112e+00
line_reg = 2.558750e-03
Note: No ".plot", ".print", or ".fourier" lines; no simulations run
vin                 =  1.764119e+00
dropout = 1.190000e-04
