 Reference value :  0.00000e+00
No compatibility mode selected!


Circuit: * ldo netlist 

Doing analysis at TEMP = 85.000000 and TNOM = 27.000000


No. of Data Rows : 1
bg_out = 1.197031e+00
inn = 1.143140e+00
inp = 1.143089e+00
l1#branch = 0.000000e+00
ldo_out = 1.800679e+00
m.xm1.msky130_fd_pr__nfet_g5v0d10v5#body = 2.913639e-11
m.xm1.msky130_fd_pr__nfet_g5v0d10v5#dbody = 5.645243e-11
m.xm1.msky130_fd_pr__nfet_g5v0d10v5#sbody = 3.095675e-11
m.xm2.msky130_fd_pr__pfet_g5v0d10v5#body = 2.300000e+00
m.xm2.msky130_fd_pr__pfet_g5v0d10v5#dbody = 2.300000e+00
m.xm2.msky130_fd_pr__pfet_g5v0d10v5#sbody = 2.300000e+00
m.xm3.msky130_fd_pr__pfet_g5v0d10v5#body = 2.300000e+00
m.xm3.msky130_fd_pr__pfet_g5v0d10v5#dbody = 2.300000e+00
m.xm3.msky130_fd_pr__pfet_g5v0d10v5#sbody = 2.300000e+00
m.xm4.msky130_fd_pr__pfet_g5v0d10v5#body = 2.300000e+00
m.xm4.msky130_fd_pr__pfet_g5v0d10v5#dbody = 2.300000e+00
m.xm4.msky130_fd_pr__pfet_g5v0d10v5#sbody = 2.300000e+00
m.xm5.msky130_fd_pr__pfet_g5v0d10v5#body = 2.300000e+00
m.xm5.msky130_fd_pr__pfet_g5v0d10v5#dbody = 2.300000e+00
m.xm5.msky130_fd_pr__pfet_g5v0d10v5#sbody = 2.300000e+00
m.xm6.msky130_fd_pr__nfet_g5v0d10v5#body = 2.043796e-11
m.xm6.msky130_fd_pr__nfet_g5v0d10v5#dbody = 5.109478e-11
m.xm6.msky130_fd_pr__nfet_g5v0d10v5#sbody = 1.021909e-11
m.xm7.msky130_fd_pr__pfet_g5v0d10v5#body = 2.300000e+00
m.xm7.msky130_fd_pr__pfet_g5v0d10v5#dbody = 2.300000e+00
m.xm7.msky130_fd_pr__pfet_g5v0d10v5#sbody = 2.300000e+00
m.xm8.msky130_fd_pr__pfet_g5v0d10v5#body = 2.300000e+00
m.xm8.msky130_fd_pr__pfet_g5v0d10v5#dbody = 2.300000e+00
m.xm8.msky130_fd_pr__pfet_g5v0d10v5#sbody = 2.300000e+00
m.xm9.msky130_fd_pr__nfet_g5v0d10v5#body = 2.730094e-11
m.xm9.msky130_fd_pr__nfet_g5v0d10v5#dbody = 5.466807e-11
m.xm9.msky130_fd_pr__nfet_g5v0d10v5#sbody = 2.723473e-11
m.xm10.msky130_fd_pr__nfet_g5v0d10v5#body = 2.702052e-11
m.xm10.msky130_fd_pr__nfet_g5v0d10v5#dbody = 5.396702e-11
m.xm10.msky130_fd_pr__nfet_g5v0d10v5#sbody = 2.709453e-11
m.xm11.msky130_fd_pr__pfet_g5v0d10v5#body = 2.300000e+00
m.xm11.msky130_fd_pr__pfet_g5v0d10v5#dbody = 2.300000e+00
m.xm11.msky130_fd_pr__pfet_g5v0d10v5#sbody = 2.300000e+00
m.xm12.msky130_fd_pr__pfet_g5v0d10v5#body = 2.300000e+00
m.xm12.msky130_fd_pr__pfet_g5v0d10v5#dbody = 2.300000e+00
m.xm12.msky130_fd_pr__pfet_g5v0d10v5#sbody = 2.300000e+00
m.xm13.msky130_fd_pr__nfet_g5v0d10v5#body = 5.145273e-12
m.xm13.msky130_fd_pr__nfet_g5v0d10v5#dbody = 1.286312e-11
m.xm13.msky130_fd_pr__nfet_g5v0d10v5#sbody = 2.572700e-12
m.xm14.msky130_fd_pr__pfet_g5v0d10v5#body = 2.300000e+00
m.xm14.msky130_fd_pr__pfet_g5v0d10v5#dbody = 2.300000e+00
m.xm14.msky130_fd_pr__pfet_g5v0d10v5#sbody = 2.300000e+00
m.xm15.msky130_fd_pr__nfet_g5v0d10v5#body = 3.677748e-14
m.xm15.msky130_fd_pr__nfet_g5v0d10v5#dbody = 9.194221e-14
m.xm15.msky130_fd_pr__nfet_g5v0d10v5#sbody = 1.839022e-14
m.xm16.msky130_fd_pr__nfet_g5v0d10v5#body = 5.366781e-11
m.xm16.msky130_fd_pr__nfet_g5v0d10v5#dbody = 9.496246e-11
m.xm16.msky130_fd_pr__nfet_g5v0d10v5#sbody = 6.604096e-11
m.xm17.msky130_fd_pr__pfet_g5v0d10v5#body = 2.300000e+00
m.xm17.msky130_fd_pr__pfet_g5v0d10v5#dbody = 2.300000e+00
m.xm17.msky130_fd_pr__pfet_g5v0d10v5#sbody = 2.300000e+00
m.xm18.msky130_fd_pr__nfet_g5v0d10v5#body = 2.432316e-11
m.xm18.msky130_fd_pr__nfet_g5v0d10v5#dbody = 6.001316e-11
m.xm18.msky130_fd_pr__nfet_g5v0d10v5#sbody = 1.216166e-11
m.xm19.msky130_fd_pr__nfet_g5v0d10v5#body = 2.921275e-11
m.xm19.msky130_fd_pr__nfet_g5v0d10v5#dbody = 5.664332e-11
m.xm19.msky130_fd_pr__nfet_g5v0d10v5#sbody = 3.099492e-11
m.xm20.msky130_fd_pr__nfet_g5v0d10v5#body = 1.449239e-11
m.xm20.msky130_fd_pr__nfet_g5v0d10v5#dbody = 3.623091e-11
m.xm20.msky130_fd_pr__nfet_g5v0d10v5#sbody = 7.246270e-12
m.xm22.msky130_fd_pr__nfet_g5v0d10v5#body = 1.148669e-11
m.xm22.msky130_fd_pr__nfet_g5v0d10v5#dbody = 2.871661e-11
m.xm22.msky130_fd_pr__nfet_g5v0d10v5#sbody = 5.743445e-12
m.xm24.msky130_fd_pr__pfet_g5v0d10v5#body = 2.300000e+00
m.xm24.msky130_fd_pr__pfet_g5v0d10v5#dbody = 2.300000e+00
m.xm24.msky130_fd_pr__pfet_g5v0d10v5#sbody = 2.300000e+00
m.xm26.msky130_fd_pr__pfet_g5v0d10v5#body = 2.300000e+00
m.xm26.msky130_fd_pr__pfet_g5v0d10v5#dbody = 2.300000e+00
m.xm26.msky130_fd_pr__pfet_g5v0d10v5#sbody = 2.300000e+00
mir = 1.250227e+00
net1 = 6.283688e-01
net2 = 7.090014e-05
net3 = 7.016457e-01
net4 = 2.308103e-01
net5 = 1.256336e+00
net6 = 9.462462e-01
net7 = 7.015931e-01
net8 = 1.324950e+00
net9 = 1.347384e+00
net10 = 2.502082e-01
net11 = 1.752565e+00
net12 = 1.752565e+00
net13 = 0.000000e+00
out = 1.752565e+00
pos = 1.197283e+00
q.xq2.qsky130_fd_pr__pnp_05v5_w0p68l0p68#collcx = 2.838332e-03
q.xq3.qsky130_fd_pr__pnp_05v5_w0p68l0p68#collcx = 3.580823e-04
q.xq4.qsky130_fd_pr__pnp_05v5_w0p68l0p68#collcx = 3.580823e-04
q.xq8.qsky130_fd_pr__pnp_05v5_w0p68l0p68#collcx = 3.580823e-04
q.xq10.qsky130_fd_pr__pnp_05v5_w0p68l0p68#collcx = 3.580823e-04
q.xq12.qsky130_fd_pr__pnp_05v5_w0p68l0p68#collcx = 3.580823e-04
q.xq14.qsky130_fd_pr__pnp_05v5_w0p68l0p68#collcx = 3.580823e-04
q.xq16.qsky130_fd_pr__pnp_05v5_w0p68l0p68#collcx = 3.580823e-04
q.xq18.qsky130_fd_pr__pnp_05v5_w0p68l0p68#collcx = 3.580823e-04
vb = 9.978904e-01
vdd = 2.300000e+00
vs#branch = -1.81737e-04
vt#branch = 0.000000e+00
xc1.a = 0.000000e+00
xc1.b1 = 0.000000e+00
xc3.a = 1.752565e+00
xc3.b1 = 1.752565e+00
xr1.xsky130_fd_pr__res_xhigh_po_0p69.ra = 7.098224e-01
xr2.xsky130_fd_pr__res_xhigh_po_0p69.ra = 7.098750e-01
xr3.xsky130_fd_pr__res_xhigh_po_0p69.ra = 4.908265e-03
xr4.xsky130_fd_pr__res_xhigh_po_0p69.ra = 6.317359e-01
xr5.xsky130_fd_pr__res_xhigh_po_0p69.ra = 4.907875e-03
xr6.xsky130_fd_pr__res_xhigh_po_0p69.ra = 8.714732e-03
xr7.xsky130_fd_pr__res_xhigh_po_0p69.ra = 1.752565e+00
xr8.xsky130_fd_pr__res_xhigh_po_0p69.ra = 1.211776e+00
xr9.xsky130_fd_pr__res_xhigh_po_0p69.ra = 1.520134e-02
Doing analysis at TEMP = 85.000000 and TNOM = 27.000000


No. of Data Rows : 91
Note: Starting true gmin stepping
Trying gmin =   1.0000E-03 Note: One successful gmin step
Trying gmin =   1.0000E-04 Note: One successful gmin step
Trying gmin =   1.0000E-05 Note: One successful gmin step
Trying gmin =   1.0000E-06 Note: One successful gmin step
Trying gmin =   1.0000E-07 Note: One successful gmin step
Trying gmin =   3.1623E-08 Warning: Further gmin increment
Trying gmin =   7.4989E-08 Note: One successful gmin step
Trying gmin =   4.8697E-08 Warning: Further gmin increment
Trying gmin =   6.7317E-08 Warning: Further gmin increment
Trying gmin =   7.2993E-08 Note: One successful gmin step
Trying gmin =   7.0098E-08 Warning: Further gmin increment
Trying gmin =   7.2258E-08 Note: One successful gmin step
Trying gmin =   7.1170E-08 Note: One successful gmin step
Trying gmin =   6.9568E-08 Note: One successful gmin step
Trying gmin =   6.7232E-08 Note: One successful gmin step
Trying gmin =   6.3875E-08 Note: One successful gmin step
Trying gmin =   5.9150E-08 Note: One successful gmin step
Trying gmin =   5.2711E-08 Note: One successful gmin step
Trying gmin =   4.4342E-08 Note: One successful gmin step
Trying gmin =   3.4213E-08 Note: One successful gmin step
Trying gmin =   2.3187E-08 Note: One successful gmin step
Trying gmin =   1.2937E-08 Note: One successful gmin step
Trying gmin =   5.3916E-09 Note: One successful gmin step
Trying gmin =   1.4506E-09 Note: One successful gmin step
Trying gmin =   2.0244E-10 Note: One successful gmin step
Trying gmin =   2.0244E-11 Note: One successful gmin step
Trying gmin =   2.0244E-12 Note: One successful gmin step
Trying gmin =   1.0000E-12 Note: One successful gmin step
Note: True gmin stepping completed
 Reference value :  2.80000e+00Note: Starting true gmin stepping
Trying gmin =   1.0000E-03 Note: One successful gmin step
Trying gmin =   1.0000E-04 Note: One successful gmin step
Trying gmin =   1.0000E-05 Note: One successful gmin step
Trying gmin =   1.0000E-06 Note: One successful gmin step
Trying gmin =   1.0000E-07 Note: One successful gmin step
Trying gmin =   1.0000E-08 Warning: Further gmin increment
Trying gmin =   5.6234E-08 Note: One successful gmin step
Trying gmin =   2.3714E-08 Note: One successful gmin step
Trying gmin =   6.4938E-09 Note: One successful gmin step
Trying gmin =   9.3057E-10 Note: One successful gmin step
Trying gmin =   9.3057E-11 Warning: Further gmin increment
Trying gmin =   5.2330E-10 Note: One successful gmin step
Trying gmin =   2.2067E-10 Warning: Further gmin increment
Trying gmin =   4.2170E-10 Note: One successful gmin step
Trying gmin =   3.0505E-10 Warning: Further gmin increment
Trying gmin =   3.8891E-10 Note: One successful gmin step
Trying gmin =   3.4444E-10 Note: One successful gmin step
Trying gmin =   2.8708E-10 Note: One successful gmin step
Trying gmin =   2.1845E-10 Note: One successful gmin step
Trying gmin =   1.4500E-10 Note: One successful gmin step
Trying gmin =   7.8417E-11 Note: One successful gmin step
Trying gmin =   3.1186E-11 Note: One successful gmin step
Trying gmin =   7.8213E-12 Note: One successful gmin step
Trying gmin =   1.0000E-12 Note: One successful gmin step
Note: True gmin stepping completed
 Reference value :  1.08000e+00Note: Starting true gmin stepping
Trying gmin =   1.0000E-03 Note: One successful gmin step
Trying gmin =   1.0000E-04 Note: One successful gmin step
Trying gmin =   1.0000E-05 Note: One successful gmin step
Trying gmin =   1.0000E-06 Note: One successful gmin step
Trying gmin =   1.0000E-07 Note: One successful gmin step
Trying gmin =   1.0000E-08 Note: One successful gmin step
Trying gmin =   3.1623E-09 Note: One successful gmin step
Trying gmin =   5.6234E-10 Note: One successful gmin step
Trying gmin =   5.6234E-11 Warning: Further gmin increment
Trying gmin =   3.1623E-10 Note: One successful gmin step
Trying gmin =   1.3335E-10 Warning: Further gmin increment
Trying gmin =   2.5483E-10 Note: One successful gmin step
Trying gmin =   1.8434E-10 Note: One successful gmin step
Trying gmin =   1.1342E-10 Note: One successful gmin step
Trying gmin =   5.4737E-11 Note: One successful gmin step
Trying gmin =   1.8352E-11 Note: One successful gmin step
Trying gmin =   3.5625E-12 Note: One successful gmin step
Trying gmin =   1.0000E-12 Note: One successful gmin step
Note: True gmin stepping completed
pm                  =  6.240683e+01
Doing analysis at TEMP = 85.000000 and TNOM = 27.000000


No. of Data Rows : 91
psrr100             =  -5.108743e+01
psrr100k            =  -2.403583e+01
Doing analysis at TEMP = 85.000000 and TNOM = 27.000000


No. of Data Rows : 86
temp_coeff = 9.638248e+01
Doing analysis at TEMP = 85.000000 and TNOM = 27.000000


No. of Data Rows : 141
vldo_sup_2          =  1.799529e+00
vldo_sup_2_8        =  1.801667e+00
line_reg = 2.672500e-03
Note: No ".plot", ".print", or ".fourier" lines; no simulations run
vin                 =  1.764114e+00
dropout = 1.140000e-04
