 Reference value :  0.00000e+00
No compatibility mode selected!


Circuit: * ldo netlist 

Doing analysis at TEMP = 27.000000 and TNOM = 27.000000


No. of Data Rows : 1
bg_out = 1.098989e+00
inn = 1.144297e+00
inp = 1.144249e+00
l1#branch = 0.000000e+00
ldo_out = 1.806987e+00
m.xm1.msky130_fd_pr__nfet_g5v0d10v5#body = 1.627402e-11
m.xm1.msky130_fd_pr__nfet_g5v0d10v5#dbody = 3.498947e-11
m.xm1.msky130_fd_pr__nfet_g5v0d10v5#sbody = 1.383260e-11
m.xm2.msky130_fd_pr__pfet_g5v0d10v5#body = 2.300000e+00
m.xm2.msky130_fd_pr__pfet_g5v0d10v5#dbody = 2.300000e+00
m.xm2.msky130_fd_pr__pfet_g5v0d10v5#sbody = 2.300000e+00
m.xm3.msky130_fd_pr__pfet_g5v0d10v5#body = 2.300000e+00
m.xm3.msky130_fd_pr__pfet_g5v0d10v5#dbody = 2.300000e+00
m.xm3.msky130_fd_pr__pfet_g5v0d10v5#sbody = 2.300000e+00
m.xm4.msky130_fd_pr__pfet_g5v0d10v5#body = 2.300000e+00
m.xm4.msky130_fd_pr__pfet_g5v0d10v5#dbody = 2.300000e+00
m.xm4.msky130_fd_pr__pfet_g5v0d10v5#sbody = 2.300000e+00
m.xm5.msky130_fd_pr__pfet_g5v0d10v5#body = 2.300000e+00
m.xm5.msky130_fd_pr__pfet_g5v0d10v5#dbody = 2.300000e+00
m.xm5.msky130_fd_pr__pfet_g5v0d10v5#sbody = 2.300000e+00
m.xm6.msky130_fd_pr__nfet_g5v0d10v5#body = 1.184341e-11
m.xm6.msky130_fd_pr__nfet_g5v0d10v5#dbody = 2.960851e-11
m.xm6.msky130_fd_pr__nfet_g5v0d10v5#sbody = 5.921708e-12
m.xm7.msky130_fd_pr__pfet_g5v0d10v5#body = 2.300000e+00
m.xm7.msky130_fd_pr__pfet_g5v0d10v5#dbody = 2.300000e+00
m.xm7.msky130_fd_pr__pfet_g5v0d10v5#sbody = 2.300000e+00
m.xm8.msky130_fd_pr__pfet_g5v0d10v5#body = 2.300000e+00
m.xm8.msky130_fd_pr__pfet_g5v0d10v5#dbody = 2.300000e+00
m.xm8.msky130_fd_pr__pfet_g5v0d10v5#sbody = 2.300000e+00
m.xm9.msky130_fd_pr__nfet_g5v0d10v5#body = 1.692201e-11
m.xm9.msky130_fd_pr__nfet_g5v0d10v5#dbody = 3.773932e-11
m.xm9.msky130_fd_pr__nfet_g5v0d10v5#sbody = 1.302671e-11
m.xm10.msky130_fd_pr__nfet_g5v0d10v5#body = 1.661729e-11
m.xm10.msky130_fd_pr__nfet_g5v0d10v5#dbody = 3.697752e-11
m.xm10.msky130_fd_pr__nfet_g5v0d10v5#sbody = 1.287435e-11
m.xm11.msky130_fd_pr__pfet_g5v0d10v5#body = 2.300000e+00
m.xm11.msky130_fd_pr__pfet_g5v0d10v5#dbody = 2.300000e+00
m.xm11.msky130_fd_pr__pfet_g5v0d10v5#sbody = 2.300000e+00
m.xm12.msky130_fd_pr__pfet_g5v0d10v5#body = 2.300000e+00
m.xm12.msky130_fd_pr__pfet_g5v0d10v5#dbody = 2.300000e+00
m.xm12.msky130_fd_pr__pfet_g5v0d10v5#sbody = 2.300000e+00
m.xm13.msky130_fd_pr__nfet_g5v0d10v5#body = 2.281496e-12
m.xm13.msky130_fd_pr__nfet_g5v0d10v5#dbody = 5.703730e-12
m.xm13.msky130_fd_pr__nfet_g5v0d10v5#sbody = 1.140759e-12
m.xm14.msky130_fd_pr__pfet_g5v0d10v5#body = 2.300000e+00
m.xm14.msky130_fd_pr__pfet_g5v0d10v5#dbody = 2.300000e+00
m.xm14.msky130_fd_pr__pfet_g5v0d10v5#sbody = 2.300000e+00
m.xm15.msky130_fd_pr__nfet_g5v0d10v5#body = 4.781959e-16
m.xm15.msky130_fd_pr__nfet_g5v0d10v5#dbody = 1.195466e-15
m.xm15.msky130_fd_pr__nfet_g5v0d10v5#sbody = 2.391214e-16
m.xm16.msky130_fd_pr__nfet_g5v0d10v5#body = 4.306240e-11
m.xm16.msky130_fd_pr__nfet_g5v0d10v5#dbody = 7.903989e-11
m.xm16.msky130_fd_pr__nfet_g5v0d10v5#sbody = 5.014731e-11
m.xm17.msky130_fd_pr__pfet_g5v0d10v5#body = 2.300000e+00
m.xm17.msky130_fd_pr__pfet_g5v0d10v5#dbody = 2.300000e+00
m.xm17.msky130_fd_pr__pfet_g5v0d10v5#sbody = 2.300000e+00
m.xm18.msky130_fd_pr__nfet_g5v0d10v5#body = 1.886845e-11
m.xm18.msky130_fd_pr__nfet_g5v0d10v5#dbody = 4.714856e-11
m.xm18.msky130_fd_pr__nfet_g5v0d10v5#sbody = 9.434241e-12
m.xm19.msky130_fd_pr__nfet_g5v0d10v5#body = 1.634949e-11
m.xm19.msky130_fd_pr__nfet_g5v0d10v5#dbody = 3.517813e-11
m.xm19.msky130_fd_pr__nfet_g5v0d10v5#sbody = 1.387033e-11
m.xm20.msky130_fd_pr__nfet_g5v0d10v5#body = 1.211915e-11
m.xm20.msky130_fd_pr__nfet_g5v0d10v5#dbody = 3.029785e-11
m.xm20.msky130_fd_pr__nfet_g5v0d10v5#sbody = 6.059587e-12
m.xm22.msky130_fd_pr__nfet_g5v0d10v5#body = 2.850507e-12
m.xm22.msky130_fd_pr__nfet_g5v0d10v5#dbody = 7.126262e-12
m.xm22.msky130_fd_pr__nfet_g5v0d10v5#sbody = 1.425258e-12
m.xm24.msky130_fd_pr__pfet_g5v0d10v5#body = 2.300000e+00
m.xm24.msky130_fd_pr__pfet_g5v0d10v5#dbody = 2.300000e+00
m.xm24.msky130_fd_pr__pfet_g5v0d10v5#sbody = 2.300000e+00
m.xm26.msky130_fd_pr__pfet_g5v0d10v5#body = 2.300000e+00
m.xm26.msky130_fd_pr__pfet_g5v0d10v5#dbody = 2.300000e+00
m.xm26.msky130_fd_pr__pfet_g5v0d10v5#sbody = 2.300000e+00
mir = 1.073751e+00
net1 = 7.274470e-01
net2 = 3.679413e-05
net3 = 7.873089e-01
net4 = 2.274759e-01
net5 = 1.079788e+00
net6 = 9.469076e-01
net7 = 7.872599e-01
net8 = 1.146516e+00
net9 = 1.170893e+00
net10 = 1.823893e-01
net11 = 1.508443e+00
net12 = 1.508443e+00
net13 = 0.000000e+00
out = 1.508443e+00
pos = 1.099225e+00
q.xq2.qsky130_fd_pr__pnp_05v5_w0p68l0p68#collcx = 2.276637e-03
q.xq3.qsky130_fd_pr__pnp_05v5_w0p68l0p68#collcx = 2.869262e-04
q.xq4.qsky130_fd_pr__pnp_05v5_w0p68l0p68#collcx = 2.869262e-04
q.xq8.qsky130_fd_pr__pnp_05v5_w0p68l0p68#collcx = 2.869262e-04
q.xq10.qsky130_fd_pr__pnp_05v5_w0p68l0p68#collcx = 2.869262e-04
q.xq12.qsky130_fd_pr__pnp_05v5_w0p68l0p68#collcx = 2.869262e-04
q.xq14.qsky130_fd_pr__pnp_05v5_w0p68l0p68#collcx = 2.869262e-04
q.xq16.qsky130_fd_pr__pnp_05v5_w0p68l0p68#collcx = 2.869262e-04
q.xq18.qsky130_fd_pr__pnp_05v5_w0p68l0p68#collcx = 2.869262e-04
vb = 9.694012e-01
vdd = 2.300000e+00
vs#branch = -1.83070e-04
vt#branch = 0.000000e+00
xc1.a = 0.000000e+00
xc1.b1 = 0.000000e+00
xc3.a = 1.508443e+00
xc3.b1 = 1.508443e+00
xr1.xsky130_fd_pr__res_xhigh_po_0p69.ra = 7.902421e-01
xr2.xsky130_fd_pr__res_xhigh_po_0p69.ra = 7.902912e-01
xr3.xsky130_fd_pr__res_xhigh_po_0p69.ra = 2.064396e-03
xr4.xsky130_fd_pr__res_xhigh_po_0p69.ra = 7.284215e-01
xr5.xsky130_fd_pr__res_xhigh_po_0p69.ra = 2.064259e-03
xr6.xsky130_fd_pr__res_xhigh_po_0p69.ra = 3.165830e-03
xr7.xsky130_fd_pr__res_xhigh_po_0p69.ra = 1.508443e+00
xr8.xsky130_fd_pr__res_xhigh_po_0p69.ra = 1.104033e+00
xr9.xsky130_fd_pr__res_xhigh_po_0p69.ra = 4.963802e-03
Doing analysis at TEMP = 27.000000 and TNOM = 27.000000


No. of Data Rows : 91
 Reference value :  3.10000e+01Note: Starting true gmin stepping
Trying gmin =   1.0000E-03 Note: One successful gmin step
Trying gmin =   1.0000E-04 Note: One successful gmin step
Trying gmin =   1.0000E-05 Note: One successful gmin step
Trying gmin =   1.0000E-06 Note: One successful gmin step
Trying gmin =   1.0000E-07 Note: One successful gmin step
Trying gmin =   1.0000E-08 Warning: Further gmin increment
Trying gmin =   5.6234E-08 Warning: Further gmin increment
Trying gmin =   8.6596E-08 Note: One successful gmin step
Trying gmin =   6.9783E-08 Warning: Further gmin increment
Trying gmin =   8.2047E-08 Note: One successful gmin step
Trying gmin =   7.5667E-08 Warning: Further gmin increment
Trying gmin =   8.0403E-08 Note: One successful gmin step
Trying gmin =   7.7999E-08 Note: One successful gmin step
Trying gmin =   7.4527E-08 Warning: Further gmin increment
Trying gmin =   7.7116E-08 Note: One successful gmin step
Trying gmin =   7.5811E-08 Note: One successful gmin step
Trying gmin =   7.4527E-08 Note: One successful gmin step
Trying gmin =   7.2643E-08 Note: One successful gmin step
Trying gmin =   6.9905E-08 Note: One successful gmin step
Trying gmin =   6.5990E-08 Note: One successful gmin step
Trying gmin =   6.0525E-08 Note: One successful gmin step
Trying gmin =   5.3164E-08 Note: One successful gmin step
Trying gmin =   4.3767E-08 Note: One successful gmin step
Trying gmin =   3.2692E-08 Note: One successful gmin step
Trying gmin =   2.1105E-08 Note: One successful gmin step
Trying gmin =   1.0947E-08 Note: One successful gmin step
Trying gmin =   4.0895E-09 Note: One successful gmin step
Trying gmin =   9.3373E-10 Note: One successful gmin step
Trying gmin =   1.0187E-10 Note: One successful gmin step
Trying gmin =   1.0187E-11 Note: One successful gmin step
Trying gmin =   1.0187E-12 Note: One successful gmin step
Trying gmin =   1.0000E-12 Note: One successful gmin step
Note: True gmin stepping completed
 Reference value :  2.80000e+00Note: Starting true gmin stepping
Trying gmin =   1.0000E-03 Note: One successful gmin step
Trying gmin =   1.0000E-04 Note: One successful gmin step
Trying gmin =   1.0000E-05 Note: One successful gmin step
Trying gmin =   1.0000E-06 Note: One successful gmin step
Trying gmin =   1.0000E-07 Note: One successful gmin step
Trying gmin =   1.0000E-08 Warning: Further gmin increment
Trying gmin =   5.6234E-08 Note: One successful gmin step
Trying gmin =   2.3714E-08 Note: One successful gmin step
Trying gmin =   6.4938E-09 Note: One successful gmin step
Trying gmin =   9.3057E-10 Warning: Further gmin increment
Trying gmin =   3.9954E-09 Note: One successful gmin step
Trying gmin =   1.9282E-09 Note: One successful gmin step
Trying gmin =   6.4647E-10 Note: One successful gmin step
Trying gmin =   1.2550E-10 Note: One successful gmin step
Trying gmin =   1.2550E-11 Note: One successful gmin step
Trying gmin =   1.2550E-12 Note: One successful gmin step
Trying gmin =   1.0000E-12 Note: One successful gmin step
Note: True gmin stepping completed
Note: Starting true gmin stepping
Trying gmin =   1.0000E-03 Note: One successful gmin step
Trying gmin =   1.0000E-04 Note: One successful gmin step
Trying gmin =   1.0000E-05 Note: One successful gmin step
Trying gmin =   1.0000E-06 Note: One successful gmin step
Trying gmin =   1.0000E-07 Note: One successful gmin step
Trying gmin =   1.0000E-08 Warning: Further gmin increment
Trying gmin =   5.6234E-08 Note: One successful gmin step
Trying gmin =   2.3714E-08 Note: One successful gmin step
Trying gmin =   6.4938E-09 Note: One successful gmin step
Trying gmin =   9.3057E-10 Warning: Further gmin increment
Trying gmin =   3.9954E-09 Note: One successful gmin step
Trying gmin =   1.9282E-09 Note: One successful gmin step
Trying gmin =   6.4647E-10 Warning: Further gmin increment
Trying gmin =   1.4672E-09 Warning: Further gmin increment
Trying gmin =   1.8009E-09 Note: One successful gmin step
Trying gmin =   1.6255E-09 Warning: Further gmin increment
Trying gmin =   1.7554E-09 Note: One successful gmin step
Trying gmin =   1.6892E-09 Note: One successful gmin step
Trying gmin =   1.5946E-09 Note: One successful gmin step
Trying gmin =   1.4626E-09 Note: One successful gmin step
Trying gmin =   1.2847E-09 Note: One successful gmin step
Trying gmin =   1.0576E-09 Note: One successful gmin step
Trying gmin =   7.8999E-10 Note: One successful gmin step
Trying gmin =   5.1000E-10 Note: One successful gmin step
Trying gmin =   2.6453E-10 Note: One successful gmin step
Trying gmin =   9.8821E-11 Note: One successful gmin step
Trying gmin =   2.2563E-11 Note: One successful gmin step
Trying gmin =   2.4617E-12 Note: One successful gmin step
Trying gmin =   1.0000E-12 Note: One successful gmin step
Note: True gmin stepping completed
 Reference value :  1.30000e+00pm                  =  6.468410e+01
Doing analysis at TEMP = 27.000000 and TNOM = 27.000000


No. of Data Rows : 91
psrr100             =  -7.247101e+01
psrr100k            =  -2.824713e+01
Doing analysis at TEMP = 27.000000 and TNOM = 27.000000


No. of Data Rows : 86
temp_coeff = 6.627893e+01
Doing analysis at TEMP = 27.000000 and TNOM = 27.000000


No. of Data Rows : 141
vldo_sup_2          =  1.807038e+00
vldo_sup_2_8        =  1.806899e+00
line_reg = 1.737500e-04
Note: No ".plot", ".print", or ".fourier" lines; no simulations run
vin                 =  1.764125e+00
dropout = 1.250000e-04
