 Reference value :  0.00000e+00
No compatibility mode selected!


Circuit: * ldo netlist 

Doing analysis at TEMP = 85.000000 and TNOM = 27.000000


No. of Data Rows : 1
bg_out = 1.090893e+00
inn = 1.049570e+00
inp = 1.049533e+00
l1#branch = 0.000000e+00
ldo_out = 1.792870e+00
m.xm1.msky130_fd_pr__nfet_g5v0d10v5#body = 2.886069e-11
m.xm1.msky130_fd_pr__nfet_g5v0d10v5#dbody = 5.549134e-11
m.xm1.msky130_fd_pr__nfet_g5v0d10v5#sbody = 3.109074e-11
m.xm2.msky130_fd_pr__pfet_g5v0d10v5#body = 2.300000e+00
m.xm2.msky130_fd_pr__pfet_g5v0d10v5#dbody = 2.300000e+00
m.xm2.msky130_fd_pr__pfet_g5v0d10v5#sbody = 2.300000e+00
m.xm3.msky130_fd_pr__pfet_g5v0d10v5#body = 2.300000e+00
m.xm3.msky130_fd_pr__pfet_g5v0d10v5#dbody = 2.300000e+00
m.xm3.msky130_fd_pr__pfet_g5v0d10v5#sbody = 2.300000e+00
m.xm4.msky130_fd_pr__pfet_g5v0d10v5#body = 2.300000e+00
m.xm4.msky130_fd_pr__pfet_g5v0d10v5#dbody = 2.300000e+00
m.xm4.msky130_fd_pr__pfet_g5v0d10v5#sbody = 2.300000e+00
m.xm5.msky130_fd_pr__pfet_g5v0d10v5#body = 2.300000e+00
m.xm5.msky130_fd_pr__pfet_g5v0d10v5#dbody = 2.300000e+00
m.xm5.msky130_fd_pr__pfet_g5v0d10v5#sbody = 2.300000e+00
m.xm6.msky130_fd_pr__nfet_g5v0d10v5#body = 1.926134e-11
m.xm6.msky130_fd_pr__nfet_g5v0d10v5#dbody = 4.815324e-11
m.xm6.msky130_fd_pr__nfet_g5v0d10v5#sbody = 9.630780e-12
m.xm7.msky130_fd_pr__pfet_g5v0d10v5#body = 2.300000e+00
m.xm7.msky130_fd_pr__pfet_g5v0d10v5#dbody = 2.300000e+00
m.xm7.msky130_fd_pr__pfet_g5v0d10v5#sbody = 2.300000e+00
m.xm8.msky130_fd_pr__pfet_g5v0d10v5#body = 2.300000e+00
m.xm8.msky130_fd_pr__pfet_g5v0d10v5#dbody = 2.300000e+00
m.xm8.msky130_fd_pr__pfet_g5v0d10v5#sbody = 2.300000e+00
m.xm9.msky130_fd_pr__nfet_g5v0d10v5#body = 2.695489e-11
m.xm9.msky130_fd_pr__nfet_g5v0d10v5#dbody = 5.362589e-11
m.xm9.msky130_fd_pr__nfet_g5v0d10v5#sbody = 2.723878e-11
m.xm10.msky130_fd_pr__nfet_g5v0d10v5#body = 2.682952e-11
m.xm10.msky130_fd_pr__nfet_g5v0d10v5#dbody = 5.331248e-11
m.xm10.msky130_fd_pr__nfet_g5v0d10v5#sbody = 2.717609e-11
m.xm11.msky130_fd_pr__pfet_g5v0d10v5#body = 2.300000e+00
m.xm11.msky130_fd_pr__pfet_g5v0d10v5#dbody = 2.300000e+00
m.xm11.msky130_fd_pr__pfet_g5v0d10v5#sbody = 2.300000e+00
m.xm12.msky130_fd_pr__pfet_g5v0d10v5#body = 2.300000e+00
m.xm12.msky130_fd_pr__pfet_g5v0d10v5#dbody = 2.300000e+00
m.xm12.msky130_fd_pr__pfet_g5v0d10v5#sbody = 2.300000e+00
m.xm13.msky130_fd_pr__nfet_g5v0d10v5#body = 5.233535e-12
m.xm13.msky130_fd_pr__nfet_g5v0d10v5#dbody = 1.308377e-11
m.xm13.msky130_fd_pr__nfet_g5v0d10v5#sbody = 2.616832e-12
m.xm14.msky130_fd_pr__pfet_g5v0d10v5#body = 2.300000e+00
m.xm14.msky130_fd_pr__pfet_g5v0d10v5#dbody = 2.300000e+00
m.xm14.msky130_fd_pr__pfet_g5v0d10v5#sbody = 2.300000e+00
m.xm15.msky130_fd_pr__nfet_g5v0d10v5#body = 3.411644e-14
m.xm15.msky130_fd_pr__nfet_g5v0d10v5#dbody = 8.528895e-14
m.xm15.msky130_fd_pr__nfet_g5v0d10v5#sbody = 1.706038e-14
m.xm16.msky130_fd_pr__nfet_g5v0d10v5#body = 5.237223e-11
m.xm16.msky130_fd_pr__nfet_g5v0d10v5#dbody = 9.418872e-11
m.xm16.msky130_fd_pr__nfet_g5v0d10v5#sbody = 6.292796e-11
m.xm17.msky130_fd_pr__pfet_g5v0d10v5#body = 2.300000e+00
m.xm17.msky130_fd_pr__pfet_g5v0d10v5#dbody = 2.300000e+00
m.xm17.msky130_fd_pr__pfet_g5v0d10v5#sbody = 2.300000e+00
m.xm18.msky130_fd_pr__nfet_g5v0d10v5#body = 1.391206e-11
m.xm18.msky130_fd_pr__nfet_g5v0d10v5#dbody = 3.478007e-11
m.xm18.msky130_fd_pr__nfet_g5v0d10v5#sbody = 6.956103e-12
m.xm19.msky130_fd_pr__nfet_g5v0d10v5#body = 2.891497e-11
m.xm19.msky130_fd_pr__nfet_g5v0d10v5#dbody = 5.562704e-11
m.xm19.msky130_fd_pr__nfet_g5v0d10v5#sbody = 3.111788e-11
m.xm20.msky130_fd_pr__nfet_g5v0d10v5#body = 1.266959e-11
m.xm20.msky130_fd_pr__nfet_g5v0d10v5#dbody = 3.167390e-11
m.xm20.msky130_fd_pr__nfet_g5v0d10v5#sbody = 6.334867e-12
m.xm22.msky130_fd_pr__nfet_g5v0d10v5#body = 1.162381e-11
m.xm22.msky130_fd_pr__nfet_g5v0d10v5#dbody = 2.905942e-11
m.xm22.msky130_fd_pr__nfet_g5v0d10v5#sbody = 5.812010e-12
m.xm24.msky130_fd_pr__pfet_g5v0d10v5#body = 2.300000e+00
m.xm24.msky130_fd_pr__pfet_g5v0d10v5#dbody = 2.300000e+00
m.xm24.msky130_fd_pr__pfet_g5v0d10v5#sbody = 2.300000e+00
m.xm26.msky130_fd_pr__pfet_g5v0d10v5#body = 2.300000e+00
m.xm26.msky130_fd_pr__pfet_g5v0d10v5#dbody = 2.300000e+00
m.xm26.msky130_fd_pr__pfet_g5v0d10v5#sbody = 2.300000e+00
mir = 1.222336e+00
net1 = 6.211198e-01
net2 = 6.600621e-05
net3 = 6.945667e-01
net4 = 2.465642e-01
net5 = 1.226678e+00
net6 = 8.571549e-01
net7 = 6.945292e-01
net8 = 1.307626e+00
net9 = 1.317656e+00
net10 = 2.622789e-01
net11 = 9.565017e-01
net12 = 9.565017e-01
net13 = 0.000000e+00
out = 9.565017e-01
pos = 1.091005e+00
q.xq2.qsky130_fd_pr__pnp_05v5_w0p68l0p68#collcx = 2.896074e-03
q.xq3.qsky130_fd_pr__pnp_05v5_w0p68l0p68#collcx = 3.642800e-04
q.xq4.qsky130_fd_pr__pnp_05v5_w0p68l0p68#collcx = 3.642800e-04
q.xq8.qsky130_fd_pr__pnp_05v5_w0p68l0p68#collcx = 3.642800e-04
q.xq10.qsky130_fd_pr__pnp_05v5_w0p68l0p68#collcx = 3.642800e-04
q.xq12.qsky130_fd_pr__pnp_05v5_w0p68l0p68#collcx = 3.642800e-04
q.xq14.qsky130_fd_pr__pnp_05v5_w0p68l0p68#collcx = 3.642800e-04
q.xq16.qsky130_fd_pr__pnp_05v5_w0p68l0p68#collcx = 3.642800e-04
q.xq18.qsky130_fd_pr__pnp_05v5_w0p68l0p68#collcx = 3.642800e-04
vb = 8.571041e-01
vdd = 2.300000e+00
vs#branch = -9.97363e-02
vt#branch = 0.000000e+00
xc1.a = 0.000000e+00
xc1.b1 = 0.000000e+00
xc3.a = 9.565017e-01
xc3.b1 = 9.565017e-01
xr1.xsky130_fd_pr__res_xhigh_po_0p69.ra = 7.029091e-01
xr2.xsky130_fd_pr__res_xhigh_po_0p69.ra = 7.029467e-01
xr3.xsky130_fd_pr__res_xhigh_po_0p69.ra = 5.097616e-03
xr4.xsky130_fd_pr__res_xhigh_po_0p69.ra = 6.244954e-01
xr5.xsky130_fd_pr__res_xhigh_po_0p69.ra = 5.097325e-03
xr6.xsky130_fd_pr__res_xhigh_po_0p69.ra = 8.857775e-03
xr7.xsky130_fd_pr__res_xhigh_po_0p69.ra = 9.565017e-01
xr8.xsky130_fd_pr__res_xhigh_po_0p69.ra = 1.104465e+00
xr9.xsky130_fd_pr__res_xhigh_po_0p69.ra = 1.389396e-02
Doing analysis at TEMP = 85.000000 and TNOM = 27.000000


No. of Data Rows : 91
Error: no such vector PM
Note: Starting true gmin stepping
Trying gmin =   1.0000E-03 Note: One successful gmin step
Trying gmin =   1.0000E-04 Note: One successful gmin step
Trying gmin =   1.0000E-05 Note: One successful gmin step
Trying gmin =   1.0000E-06 Note: One successful gmin step
Trying gmin =   1.0000E-07 Note: One successful gmin step
Trying gmin =   1.0000E-08 Note: One successful gmin step
Trying gmin =   3.1623E-09 Note: One successful gmin step
Trying gmin =   5.6234E-10 Note: One successful gmin step
Trying gmin =   5.6234E-11 Note: One successful gmin step
Trying gmin =   5.6234E-12 Note: One successful gmin step
Trying gmin =   1.0000E-12 Note: One successful gmin step
Note: True gmin stepping completed
 Reference value :  1.08000e+00
Error: measure  pm  (AT) : out of interval
 meas ac pm find p when vdb(ldo_out)=0 failed!

Doing analysis at TEMP = 85.000000 and TNOM = 27.000000


No. of Data Rows : 91
psrr100             =  -5.287279e+01
psrr100k            =  -2.293797e+01
Doing analysis at TEMP = 85.000000 and TNOM = 27.000000


No. of Data Rows : 86
temp_coeff = 4.906340e+01
Doing analysis at TEMP = 85.000000 and TNOM = 27.000000


No. of Data Rows : 141
vldo_sup_2          =  1.791801e+00
vldo_sup_2_8        =  1.793692e+00
line_reg = 2.363750e-03
Note: No ".plot", ".print", or ".fourier" lines; no simulations run
vin                 =  1.920247e+00
dropout = 1.562470e-01
