Note: Starting true gmin stepping
Trying gmin =   1.0000E-03 Note: One successful gmin step
Trying gmin =   1.0000E-04 Note: One successful gmin step
Trying gmin =   1.0000E-05 Note: One successful gmin step
Trying gmin =   1.0000E-06 Note: One successful gmin step
Trying gmin =   1.0000E-07 Note: One successful gmin step
Trying gmin =   3.1623E-08 Note: One successful gmin step
Trying gmin =   5.6234E-09 Note: One successful gmin step
Trying gmin =   5.6234E-10 Note: One successful gmin step
Trying gmin =   5.6234E-11 Note: One successful gmin step
Trying gmin =   5.6234E-12 Note: One successful gmin step
Trying gmin =   1.0000E-12 Note: One successful gmin step
Note: True gmin stepping completed
 Reference value :  0.00000e+00
No compatibility mode selected!


Circuit: * ldo netlist 

Doing analysis at TEMP = 27.000000 and TNOM = 27.000000


No. of Data Rows : 1
bg_out = 2.462723e+00
inn = 2.434744e+00
inp = -4.10240e+02
l1#branch = 0.000000e+00
ldo_out = 2.499910e+00
m.xm1.msky130_fd_pr__nfet_g5v0d10v5#body = 5.669504e-16
m.xm1.msky130_fd_pr__nfet_g5v0d10v5#dbody = 9.164570e-16
m.xm1.msky130_fd_pr__nfet_g5v0d10v5#sbody = 7.843943e-16
m.xm2.msky130_fd_pr__pfet_g5v0d10v5#body = 2.491931e+00
m.xm2.msky130_fd_pr__pfet_g5v0d10v5#dbody = 2.495965e+00
m.xm2.msky130_fd_pr__pfet_g5v0d10v5#sbody = 2.495965e+00
m.xm3.msky130_fd_pr__pfet_g5v0d10v5#body = 2.500000e+00
m.xm3.msky130_fd_pr__pfet_g5v0d10v5#dbody = 2.500000e+00
m.xm3.msky130_fd_pr__pfet_g5v0d10v5#sbody = 2.500000e+00
m.xm4.msky130_fd_pr__pfet_g5v0d10v5#body = 2.500000e+00
m.xm4.msky130_fd_pr__pfet_g5v0d10v5#dbody = 2.500000e+00
m.xm4.msky130_fd_pr__pfet_g5v0d10v5#sbody = 2.500000e+00
m.xm5.msky130_fd_pr__pfet_g5v0d10v5#body = 2.500000e+00
m.xm5.msky130_fd_pr__pfet_g5v0d10v5#dbody = 2.500000e+00
m.xm5.msky130_fd_pr__pfet_g5v0d10v5#sbody = 2.500000e+00
m.xm6.msky130_fd_pr__nfet_g5v0d10v5#body = 2.238600e-11
m.xm6.msky130_fd_pr__nfet_g5v0d10v5#dbody = 5.567475e-11
m.xm6.msky130_fd_pr__nfet_g5v0d10v5#sbody = 1.119314e-11
m.xm7.msky130_fd_pr__pfet_g5v0d10v5#body = 2.500000e+00
m.xm7.msky130_fd_pr__pfet_g5v0d10v5#dbody = 2.500000e+00
m.xm7.msky130_fd_pr__pfet_g5v0d10v5#sbody = 2.500000e+00
m.xm8.msky130_fd_pr__pfet_g5v0d10v5#body = 2.500000e+00
m.xm8.msky130_fd_pr__pfet_g5v0d10v5#dbody = 2.500000e+00
m.xm8.msky130_fd_pr__pfet_g5v0d10v5#sbody = 2.500000e+00
m.xm9.msky130_fd_pr__nfet_g5v0d10v5#body = 1.279460e-11
m.xm9.msky130_fd_pr__nfet_g5v0d10v5#dbody = 2.090350e-11
m.xm9.msky130_fd_pr__nfet_g5v0d10v5#sbody = 1.748030e-11
m.xm10.msky130_fd_pr__nfet_g5v0d10v5#body = 5.715151e-11
m.xm10.msky130_fd_pr__nfet_g5v0d10v5#dbody = 8.871697e-11
m.xm10.msky130_fd_pr__nfet_g5v0d10v5#sbody = 3.965868e-11
m.xm11.msky130_fd_pr__pfet_g5v0d10v5#body = 2.500000e+00
m.xm11.msky130_fd_pr__pfet_g5v0d10v5#dbody = 2.500000e+00
m.xm11.msky130_fd_pr__pfet_g5v0d10v5#sbody = 2.500000e+00
m.xm12.msky130_fd_pr__pfet_g5v0d10v5#body = 2.500000e+00
m.xm12.msky130_fd_pr__pfet_g5v0d10v5#dbody = 2.500000e+00
m.xm12.msky130_fd_pr__pfet_g5v0d10v5#sbody = 2.500000e+00
m.xm13.msky130_fd_pr__nfet_g5v0d10v5#body = 5.540100e-12
m.xm13.msky130_fd_pr__nfet_g5v0d10v5#dbody = 1.385003e-11
m.xm13.msky130_fd_pr__nfet_g5v0d10v5#sbody = 2.770269e-12
m.xm14.msky130_fd_pr__pfet_g5v0d10v5#body = 2.500000e+00
m.xm14.msky130_fd_pr__pfet_g5v0d10v5#dbody = 2.500000e+00
m.xm14.msky130_fd_pr__pfet_g5v0d10v5#sbody = 2.500000e+00
m.xm15.msky130_fd_pr__nfet_g5v0d10v5#body = 2.444338e-21
m.xm15.msky130_fd_pr__nfet_g5v0d10v5#dbody = 6.110374e-21
m.xm15.msky130_fd_pr__nfet_g5v0d10v5#sbody = 1.222640e-21
m.xm16.msky130_fd_pr__nfet_g5v0d10v5#body = 6.169305e-11
m.xm16.msky130_fd_pr__nfet_g5v0d10v5#dbody = 9.335528e-11
m.xm16.msky130_fd_pr__nfet_g5v0d10v5#sbody = 9.172387e-11
m.xm17.msky130_fd_pr__pfet_g5v0d10v5#body = 2.500000e+00
m.xm17.msky130_fd_pr__pfet_g5v0d10v5#dbody = 2.500000e+00
m.xm17.msky130_fd_pr__pfet_g5v0d10v5#sbody = 2.500000e+00
m.xm18.msky130_fd_pr__nfet_g5v0d10v5#body = 3.138991e-19
m.xm18.msky130_fd_pr__nfet_g5v0d10v5#dbody = 7.847295e-19
m.xm18.msky130_fd_pr__nfet_g5v0d10v5#sbody = 1.569678e-19
m.xm19.msky130_fd_pr__nfet_g5v0d10v5#body = 5.070946e-08
m.xm19.msky130_fd_pr__nfet_g5v0d10v5#dbody = 2.539858e-08
m.xm19.msky130_fd_pr__nfet_g5v0d10v5#sbody = 2.535473e-08
m.xm20.msky130_fd_pr__nfet_g5v0d10v5#body = 2.365800e-11
m.xm20.msky130_fd_pr__nfet_g5v0d10v5#dbody = 5.909103e-11
m.xm20.msky130_fd_pr__nfet_g5v0d10v5#sbody = 1.182930e-11
m.xm22.msky130_fd_pr__nfet_g5v0d10v5#body = 2.523830e-16
m.xm22.msky130_fd_pr__nfet_g5v0d10v5#dbody = 6.309501e-16
m.xm22.msky130_fd_pr__nfet_g5v0d10v5#sbody = 1.261991e-16
m.xm24.msky130_fd_pr__pfet_g5v0d10v5#body = 2.500000e+00
m.xm24.msky130_fd_pr__pfet_g5v0d10v5#dbody = 2.500000e+00
m.xm24.msky130_fd_pr__pfet_g5v0d10v5#sbody = 2.500000e+00
m.xm26.msky130_fd_pr__pfet_g5v0d10v5#body = 2.500000e+00
m.xm26.msky13Note: Starting true gmin stepping
Trying gmin =   1.0000E-03 Note: One successful gmin step
Trying gmin =   1.0000E-04 Note: One successful gmin step
Trying gmin =   1.0000E-05 Note: One successful gmin step
Trying gmin =   1.0000E-06 Note: One successful gmin step
Trying gmin =   1.0000E-07 Note: One successful gmin step
Trying gmin =   3.1623E-08 Note: One successful gmin step
Trying gmin =   5.6234E-09 Note: One successful gmin step
Trying gmin =   5.6234E-10 Note: One successful gmin step
Trying gmin =   5.6234E-11 Note: One successful gmin step
Trying gmin =   5.6234E-12 Note: One successful gmin step
Trying gmin =   1.0000E-12 Note: One successful gmin step
Note: True gmin stepping completed
0_fd_pr__pfet_g5v0d10v5#dbody = 2.500000e+00
m.xm26.msky130_fd_pr__pfet_g5v0d10v5#sbody = 2.500000e+00
mir = 2.500547e-05
net1 = 2.662259e+00
net2 = 1.880557e-10
net3 = 8.651481e-01
net4 = 1.978797e-05
net5 = 1.753625e+00
net6 = 1.778708e+00
net7 = -6.39664e+02
net8 = 2.405408e+00
net9 = 5.800103e-01
net10 = 4.430749e-01
net11 = 2.499264e-08
net12 = 2.499264e-08
net13 = 0.000000e+00
out = 2.499264e-08
pos = 1.662518e+00
q.xq2.qsky130_fd_pr__pnp_05v5_w0p68l0p68#collcx = 1.644864e-02
q.xq3.qsky130_fd_pr__pnp_05v5_w0p68l0p68#collcx = 5.121654e-01
q.xq4.qsky130_fd_pr__pnp_05v5_w0p68l0p68#collcx = 5.121654e-01
q.xq8.qsky130_fd_pr__pnp_05v5_w0p68l0p68#collcx = 5.121654e-01
q.xq10.qsky130_fd_pr__pnp_05v5_w0p68l0p68#collcx = 5.121654e-01
q.xq12.qsky130_fd_pr__pnp_05v5_w0p68l0p68#collcx = 5.121654e-01
q.xq14.qsky130_fd_pr__pnp_05v5_w0p68l0p68#collcx = 5.121654e-01
q.xq16.qsky130_fd_pr__pnp_05v5_w0p68l0p68#collcx = 5.121654e-01
q.xq18.qsky130_fd_pr__pnp_05v5_w0p68l0p68#collcx = 5.121654e-01
vb = 1.890360e+00
vdd = 2.500000e+00
vs#branch = -9.79560e-03
vt#branch = 0.000000e+00
xc1.a = 0.000000e+00
xc1.b1 = 0.000000e+00
xc3.a = 2.499264e-08
xc3.b1 = 2.499264e-08
xr1.xsky130_fd_pr__res_xhigh_po_0p69.ra = -6.33429e+02
xr2.xsky130_fd_pr__res_xhigh_po_0p69.ra = 8.945885e-01
xr3.xsky130_fd_pr__res_xhigh_po_0p69.ra = 5.670511e-03
xr4.xsky130_fd_pr__res_xhigh_po_0p69.ra = 2.343126e+01
xr5.xsky130_fd_pr__res_xhigh_po_0p69.ra = -1.45346e+01
xr6.xsky130_fd_pr__res_xhigh_po_0p69.ra = 1.765599e-02
xr7.xsky130_fd_pr__res_xhigh_po_0p69.ra = 2.499264e-08
xr8.xsky130_fd_pr__res_xhigh_po_0p69.ra = 1.681490e+00
xr9.xsky130_fd_pr__res_xhigh_po_0p69.ra = 2.011654e-02
Doing analysis at TEMP = 27.000000 and TNOM = 27.000000


No. of Data Rows : 91
Error: no such vector PM
Note: Starting true gmin stepping
Trying gmin =   1.0000E-03 Note: One successful gmin step
Trying gmin =   1.0000E-04 Note: One successful gmin step
Trying gmin =   1.0000E-05 Note: One successful gmin step
Trying gmin =   1.0000E-06 Note: One successful gmin step
Trying gmin =   1.0000E-07 Note: One successful gmin step
Trying gmin =   3.1623E-08 Note: One successful gmin step
Trying gmin =   5.6234E-09 Note: One successful gmin step
Trying gmin =   5.6234E-10 Note: One successful gmin step
Trying gmin =   5.6234E-11 Note: One successful gmin step
Trying gmin =   5.6234E-12 Note: One successful gmin step
Trying gmin =   1.0000E-12 Note: One successful gmin step
Note: True gmin stepping completed
 Reference value :  3.10000e+01Note: Starting true gmin stepping
Trying gmin =   1.0000E-03 Note: One successful gmin step
Trying gmin =   1.0000E-04 Note: One successful gmin step
Trying gmin =   1.0000E-05 Note: One successful gmin step
Trying gmin =   1.0000E-06 Note: One successful gmin step
Trying gmin =   1.0000E-07 Warning: Further gmin increment
Trying gmin =   5.6234E-07 Note: One successful gmin step
Trying gmin =   3.1623E-07 Note: One successful gmin step
Trying gmin =   1.3335E-07 Note: One successful gmin step
Trying gmin =   3.6517E-08 Warning: Further gmin increment
Trying gmin =   9.6466E-08 Warning: Further gmin increment
Trying gmin =   1.2298E-07 Note: One successful gmin step
Trying gmin =   1.0892E-07 Warning: Further gmin increment
Trying gmin =   1.1931E-07 Warning: Further gmin increment
Trying gmin =   1.2205E-07 Note: One successful gmin step
Trying gmin =   1.2067E-07 Note: One successful gmin step
Trying gmin =   1.1863E-07 Warning: Further gmin increment
Trying gmin =   1.2016E-07 Warning: Further gmin increment
Trying gmin =   1.2054E-07 Note: One successful gmin step
Trying gmin =   1.2035E-07 Warning: Further gmin increment
Trying gmin =   1.2049E-07 Note: One successful gmin step
Trying gmin =   1.2042E-07 Note: One successful gmin step
Trying gmin =   1.2031E-07 Warning: Further gmin increment
Trying gmin =   1.2039E-07 Warning: Further gmin increment
Trying gmin =   1.2042E-07 Note: One successful gmin step
Trying gmin =   1.2041E-07 Note: One successful gmin step
Trying gmin =   1.2039E-07 Warning: Further gmin increment
Trying gmin =   1.2040E-07 Warning: Last gmin step failed
Warning: True gmin stepping failed
Note: Starting dynamic gmin stepping
Trying gmin =   1.0000E-03 Note: One successful gmin step
Trying gmin =   1.0000E-04 Note: One successful gmin step
Trying gmin =   1.0000E-05 Warning: Further gmin increment
Trying gmin =   5.6234E-05 Note: One successful gmin step
Trying gmin =   2.3714E-05 Note: One successful gmin step
Trying gmin =   6.4938E-06 Warning: Further gmin increment
Trying gmin =   1.7154E-05 Note: One successful gmin step
Trying gmin =   1.0554E-05 Warning: Further gmin increment
Trying gmin =   1.5193E-05 Note: One successful gmin step
Trying gmin =   1.2663E-05 Note: One successful gmin step
Trying gmin =   9.6358E-06 Warning: Further gmin increment
Trying gmin =   1.1827E-05 Note: One successful gmin step
Trying gmin =   1.0675E-05 Warning: Further gmin increment
Trying gmin =   1.1528E-05 Note: One successful gmin step
Trying gmin =   1.1093E-05 Note: One successful gmin step
Trying gmin =   1.0472E-05 Note: One successful gmin step
Trying gmin =   9.6050E-06 Note: One successful gmin step
Trying gmin =   8.4369E-06 Note: One successful gmin step
Trying gmin =   6.9456E-06 Note: One successful gmin step
Trying gmin =   5.1881E-06 Note: One successful gmin step
Trying gmin =   3.3493E-06 Note: One successful gmin step
Trying gmin =   2.1622E-06 Note: One successful gmin step
Trying gmin =   1.1215E-06 Warning: Further gmin increment
Trying gmin =   1.8349E-06 Note: One successful gmin step
Trying gmin =   1.4345E-06 Warning: Further gmin increment
Trying gmin =   1.7254E-06 Warning: Further gmin increment
Trying gmin =   1.8069E-06 Note: One successful gmin step
Trying gmin =   1.7657E-06 Note: One successful gmin step
Trying gmin =   1.7056E-06 Warning: Further gmin increment
Trying gmin =   1.7505E-06 Note: One successful gmin step
Trying gmin =   1.7354E-06 Note: One successful gmin step
Trying gmin =   1.7130E-06 Note: One successful gmin step
Trying gmin =   1.6800E-06 Note: One successful gmin step
Trying gmin =   1.6316E-06 Note: One successful gmin step
Trying gmin =   1.5617E-06 Note: One successful gmin step
Trying gmin =   1.4623E-06 Note: One successful gmin step
Trying gmin =   1.3251E-06 Note: One successful gmin step
Trying gmin =   1.1429E-06 Note: One successful gmin step
Trying gmin =   9.1558E-07 Note: One successful gmin step
Trying gmin =   6.5646E-07 Note: One successful gmin step
Trying gmin =   3.9854E-07 Note: One successful gmin step
Trying gmin =   1.8853E-07 Note: One successful gmin step
Trying gmin =   6.1338E-08 Note: One successful gmin step
Trying gmin =   1.1383E-08 Note: One successful gmin step
Trying gmin =   1.1383E-09 Note: One successful gmin step
Trying gmin =   1.1383E-10 Note: One successful gmin step
Trying gmin =   1.1383E-11 Note: One successful gmin step
Trying gmin =   1.1383E-12 Note: One successful gmin step
Trying gmin =   1.0000E-12 Note: One successful gmin step
Note: Dynamic gmin stepping completed
 Reference value :  2.80000e+00Note: Starting true gmin stepping
Trying gmin =   1.0000E-03 Note: One successful gmin step
Trying gmin =   1.0000E-04 Note: One successful gmin step
Trying gmin =   1.0000E-05 Note: One successful gmin step
Trying gmin =   1.0000E-06 Note: One successful gmin step
Trying gmin =   1.0000E-07 Note: One successful gmin step
Trying gmin =   1.0000E-08 Note: One successful gmin step
Trying gmin =   3.1623E-09 Note: One successful gmin step
Trying gmin =   5.6234E-10 Note: One successful gmin step
Trying gmin =   5.6234E-11 Note: One successful gmin step
Trying gmin =   5.6234E-12 Warning: Further gmin increment
Trying gmin =   3.1623E-11 Note: One successful gmin step
Trying gmin =   1.3335E-11 Warning: Further gmin increment
Trying gmin =   2.5483E-11 Note: One successful gmin step
Trying gmin =   1.8434E-11 Note: One successful gmin step
Trying gmin =   1.1342E-11 Warning: Further gmin increment
Trying gmin =   1.6326E-11 Note: One successful gmin step
Trying gmin =   1.3608E-11 Note: One successful gmin step
Trying gmin =   1.0355E-11 Note: One successful gmin step
Trying gmin =   6.8732E-12 Note: One successful gmin step
Trying gmin =   3.7170E-12 Note: One successful gmin step
Trying gmin =   1.4782E-12 Note: One successful gmin step
Trying gmin =   1.0000E-12 Note: One successful gmin step
Note: True gmin stepping completed
 Reference value :  1.16000e+00Note: Starting true gmin stepping
Trying gmin =   1.0000E-03 Note: One successful gmin step
Trying gmin =   1.0000E-04 Note: One successful gmin step
Trying gmin =   1.0000E-05 Note: One successful gmin step
Trying gmin =   1.0000E-06 Note: One successful gmin step
Trying gmin =   1.0000E-07 Note: One successful gmin step
Trying gmin =   1.0000E-08 Note: One successful gmin step
Trying gmin =   3.1623E-09 Note: One successful gmin step
Trying gmin =   5.6234E-10 Note: One successful gmin step
Trying gmin =   5.6234E-11 Note: One successful gmin step
Trying gmin =   5.6234E-12 Warning: Further gmin increment
Trying gmin =   3.1623E-11 Note: One successful gmin step
Trying gmin =   1.3335E-11 Warning: Further gmin increment
Trying gmin =   2.5483E-11 Note: One successful gmin step
Trying gmin =   1.8434E-11 Note: One successful gmin step
Trying gmin =   1.1342E-11 Warning: Further gmin increment
Trying gmin =   1.6326E-11 Note: One successful gmin step
Trying gmin =   1.3608E-11 Note: One successful gmin step
Trying gmin =   1.1342E-11 Note: One successful gmin step
Trying gmin =   8.6305E-12 Note: One successful gmin step
Trying gmin =   5.7287E-12 Note: One successful gmin step
Trying gmin =   3.0981E-12 Note: One successful gmin step
Trying gmin =   1.2321E-12 Note: One successful gmin step
Trying gmin =   1.0000E-12 Note: One successful gmin step
Note: True gmin stepping completed
 Reference value :  7.40000e-01
Error: measure  pm  (AT) : out of interval
 meas ac pm find ph when vdb(out)=0 failed!

Doing analysis at TEMP = 27.000000 and TNOM = 27.000000


No. of Data Rows : 91
psrr100             =  3.068694e-05
psrr100k            =  3.036871e-05
Doing analysis at TEMP = 27.000000 and TNOM = 27.000000


No. of Data Rows : 86
temp_coeff = 3.181123e+02
Doing analysis at TEMP = 27.000000 and TNOM = 27.000000


No. of Data Rows : 141
vldo_sup_2          =  1.793373e+00
vldo_sup_2_8        =  1.793315e+00
line_reg = 7.250000e-05
Note: No ".plot", ".print", or ".fourier" lines; no simulations run
vin                 =  1.764101e+00
dropout = 1.010000e-04
