 Reference value :  0.00000e+00
No compatibility mode selected!


Circuit: * ldo netlist 

Doing analysis at TEMP = 27.000000 and TNOM = 27.000000


No. of Data Rows : 1
bg_out = 1.198665e+00
inn = 1.233628e+00
inp = 1.233597e+00
l1#branch = 0.000000e+00
ldo_out = 1.803810e+00
m.xm1.msky130_fd_pr__nfet_g5v0d10v5#body = 1.831543e-11
m.xm1.msky130_fd_pr__nfet_g5v0d10v5#dbody = 3.931104e-11
m.xm1.msky130_fd_pr__nfet_g5v0d10v5#sbody = 1.563527e-11
m.xm2.msky130_fd_pr__pfet_g5v0d10v5#body = 2.500000e+00
m.xm2.msky130_fd_pr__pfet_g5v0d10v5#dbody = 2.500000e+00
m.xm2.msky130_fd_pr__pfet_g5v0d10v5#sbody = 2.500000e+00
m.xm3.msky130_fd_pr__pfet_g5v0d10v5#body = 2.500000e+00
m.xm3.msky130_fd_pr__pfet_g5v0d10v5#dbody = 2.500000e+00
m.xm3.msky130_fd_pr__pfet_g5v0d10v5#sbody = 2.500000e+00
m.xm4.msky130_fd_pr__pfet_g5v0d10v5#body = 2.500000e+00
m.xm4.msky130_fd_pr__pfet_g5v0d10v5#dbody = 2.500000e+00
m.xm4.msky130_fd_pr__pfet_g5v0d10v5#sbody = 2.500000e+00
m.xm5.msky130_fd_pr__pfet_g5v0d10v5#body = 2.500000e+00
m.xm5.msky130_fd_pr__pfet_g5v0d10v5#dbody = 2.500000e+00
m.xm5.msky130_fd_pr__pfet_g5v0d10v5#sbody = 2.500000e+00
m.xm6.msky130_fd_pr__nfet_g5v0d10v5#body = 1.228361e-11
m.xm6.msky130_fd_pr__nfet_g5v0d10v5#dbody = 3.070901e-11
m.xm6.msky130_fd_pr__nfet_g5v0d10v5#sbody = 6.141808e-12
m.xm7.msky130_fd_pr__pfet_g5v0d10v5#body = 2.500000e+00
m.xm7.msky130_fd_pr__pfet_g5v0d10v5#dbody = 2.500000e+00
m.xm7.msky130_fd_pr__pfet_g5v0d10v5#sbody = 2.500000e+00
m.xm8.msky130_fd_pr__pfet_g5v0d10v5#body = 2.500000e+00
m.xm8.msky130_fd_pr__pfet_g5v0d10v5#dbody = 2.500000e+00
m.xm8.msky130_fd_pr__pfet_g5v0d10v5#sbody = 2.500000e+00
m.xm9.msky130_fd_pr__nfet_g5v0d10v5#body = 1.901504e-11
m.xm9.msky130_fd_pr__nfet_g5v0d10v5#dbody = 4.207071e-11
m.xm9.msky130_fd_pr__nfet_g5v0d10v5#sbody = 1.497440e-11
m.xm10.msky130_fd_pr__nfet_g5v0d10v5#body = 1.873838e-11
m.xm10.msky130_fd_pr__nfet_g5v0d10v5#dbody = 4.137906e-11
m.xm10.msky130_fd_pr__nfet_g5v0d10v5#sbody = 1.483607e-11
m.xm11.msky130_fd_pr__pfet_g5v0d10v5#body = 2.500000e+00
m.xm11.msky130_fd_pr__pfet_g5v0d10v5#dbody = 2.500000e+00
m.xm11.msky130_fd_pr__pfet_g5v0d10v5#sbody = 2.500000e+00
m.xm12.msky130_fd_pr__pfet_g5v0d10v5#body = 2.500000e+00
m.xm12.msky130_fd_pr__pfet_g5v0d10v5#dbody = 2.500000e+00
m.xm12.msky130_fd_pr__pfet_g5v0d10v5#sbody = 2.500000e+00
m.xm13.msky130_fd_pr__nfet_g5v0d10v5#body = 2.732085e-12
m.xm13.msky130_fd_pr__nfet_g5v0d10v5#dbody = 6.830201e-12
m.xm13.msky130_fd_pr__nfet_g5v0d10v5#sbody = 1.366053e-12
m.xm14.msky130_fd_pr__pfet_g5v0d10v5#body = 2.500000e+00
m.xm14.msky130_fd_pr__pfet_g5v0d10v5#dbody = 2.500000e+00
m.xm14.msky130_fd_pr__pfet_g5v0d10v5#sbody = 2.500000e+00
m.xm15.msky130_fd_pr__nfet_g5v0d10v5#body = 5.302674e-16
m.xm15.msky130_fd_pr__nfet_g5v0d10v5#dbody = 1.325643e-15
m.xm15.msky130_fd_pr__nfet_g5v0d10v5#sbody = 2.651589e-16
m.xm16.msky130_fd_pr__nfet_g5v0d10v5#body = 4.667908e-11
m.xm16.msky130_fd_pr__nfet_g5v0d10v5#dbody = 8.584828e-11
m.xm16.msky130_fd_pr__nfet_g5v0d10v5#sbody = 5.418897e-11
m.xm17.msky130_fd_pr__pfet_g5v0d10v5#body = 2.500000e+00
m.xm17.msky130_fd_pr__pfet_g5v0d10v5#dbody = 2.500000e+00
m.xm17.msky130_fd_pr__pfet_g5v0d10v5#sbody = 2.500000e+00
m.xm18.msky130_fd_pr__nfet_g5v0d10v5#body = 2.051342e-11
m.xm18.msky130_fd_pr__nfet_g5v0d10v5#dbody = 5.110240e-11
m.xm18.msky130_fd_pr__nfet_g5v0d10v5#sbody = 1.025672e-11
m.xm19.msky130_fd_pr__nfet_g5v0d10v5#body = 1.836817e-11
m.xm19.msky130_fd_pr__nfet_g5v0d10v5#dbody = 3.944287e-11
m.xm19.msky130_fd_pr__nfet_g5v0d10v5#sbody = 1.566163e-11
m.xm20.msky130_fd_pr__nfet_g5v0d10v5#body = 1.286102e-11
m.xm20.msky130_fd_pr__nfet_g5v0d10v5#dbody = 3.215254e-11
m.xm20.msky130_fd_pr__nfet_g5v0d10v5#sbody = 6.430523e-12
m.xm22.msky130_fd_pr__nfet_g5v0d10v5#body = 3.241488e-12
m.xm22.msky130_fd_pr__nfet_g5v0d10v5#dbody = 8.103714e-12
m.xm22.msky130_fd_pr__nfet_g5v0d10v5#sbody = 1.620749e-12
m.xm24.msky130_fd_pr__pfet_g5v0d10v5#body = 2.500000e+00
m.xm24.msky130_fd_pr__pfet_g5v0d10v5#dbody = 2.500000e+00
m.xm24.msky130_fd_pr__pfet_g5v0d10v5#sbody = 2.500000e+00
m.xm26.msky130_fd_pr__pfet_g5v0d10v5#body = 2.500000e+00
m.xm26.msky130_fd_pr__pfet_g5v0d10v5#dbody = 2.500000e+00
m.xm26.msky130_fd_pr__pfet_g5v0d10v5#sbody = 2.500000e+00
mir = 1.205783e+00
net1 = 7.329133e-01
net2 = 4.079841e-05
net3 = 7.924552e-01
net4 = 2.587526e-01
net5 = 1.210002e+00
net6 = 9.821219e-01
net7 = 7.924233e-01
net8 = 1.280154e+00
net9 = 1.302287e+00
net10 = 2.184346e-01
net11 = 1.633696e+00
net12 = 1.633696e+00
net13 = 0.000000e+00
out = 1.633696e+00
pos = 1.198866e+00
q.xq2.qsky130_fd_pr__pnp_05v5_w0p68l0p68#collcx = 2.121735e-03
q.xq3.qsky130_fd_pr__pnp_05v5_w0p68l0p68#collcx = 2.691939e-04
q.xq4.qsky130_fd_pr__pnp_05v5_w0p68l0p68#collcx = 2.691939e-04
q.xq8.qsky130_fd_pr__pnp_05v5_w0p68l0p68#collcx = 2.691939e-04
q.xq10.qsky130_fd_pr__pnp_05v5_w0p68l0p68#collcx = 2.691939e-04
q.xq12.qsky130_fd_pr__pnp_05v5_w0p68l0p68#collcx = 2.691939e-04
q.xq14.qsky130_fd_pr__pnp_05v5_w0p68l0p68#collcx = 2.691939e-04
q.xq16.qsky130_fd_pr__pnp_05v5_w0p68l0p68#collcx = 2.691939e-04
q.xq18.qsky130_fd_pr__pnp_05v5_w0p68l0p68#collcx = 2.691939e-04
vb = 1.028749e+00
vdd = 2.500000e+00
vs#branch = -1.82107e-04
vt#branch = 0.000000e+00
xc1.a = 0.000000e+00
xc1.b1 = 0.000000e+00
xc3.a = 1.633696e+00
xc3.b1 = 1.633696e+00
xr1.xsky130_fd_pr__res_xhigh_po_0p69.ra = 7.953341e-01
xr2.xsky130_fd_pr__res_xhigh_po_0p69.ra = 7.953660e-01
xr3.xsky130_fd_pr__res_xhigh_po_0p69.ra = 1.980334e-03
xr4.xsky130_fd_pr__res_xhigh_po_0p69.ra = 7.338827e-01
xr5.xsky130_fd_pr__res_xhigh_po_0p69.ra = 1.980249e-03
xr6.xsky130_fd_pr__res_xhigh_po_0p69.ra = 3.094895e-03
xr7.xsky130_fd_pr__res_xhigh_po_0p69.ra = 1.633696e+00
xr8.xsky130_fd_pr__res_xhigh_po_0p69.ra = 1.204010e+00
xr9.xsky130_fd_pr__res_xhigh_po_0p69.ra = 5.395002e-03
Doing analysis at TEMP = 27.000000 and TNOM = 27.000000


No. of Data Rows : 91
Note: Starting true gmin stepping
Trying gmin =   1.0000E-03 Note: One successful gmin step
Trying gmin =   1.0000E-04 Note: One successful gmin step
Trying gmin =   1.0000E-05 Note: One successful gmin step
Trying gmin =   1.0000E-06 Note: One successful gmin step
Trying gmin =   1.0000E-07 Note: One successful gmin step
Trying gmin =   1.0000E-08 Warning: Further gmin increment
Trying gmin =   5.6234E-08 Warning: Further gmin increment
Trying gmin =   8.6596E-08 Note: One successful gmin step
Trying gmin =   6.9783E-08 Warning: Further gmin increment
Trying gmin =   8.2047E-08 Note: One successful gmin step
Trying gmin =   7.5667E-08 Note: One successful gmin step
Trying gmin =   6.7015E-08 Warning: Further gmin increment
Trying gmin =   7.3404E-08 Warning: Further gmin increment
Trying gmin =   7.5095E-08 Warning: Further gmin increment
Trying gmin =   7.5524E-08 Note: One successful gmin step
Trying gmin =   7.5309E-08 Note: One successful gmin step
Trying gmin =   7.4988E-08 Warning: Further gmin increment
Trying gmin =   7.5229E-08 Note: One successful gmin step
Trying gmin =   7.5108E-08 Warning: Further gmin increment
Trying gmin =   7.5198E-08 Note: One successful gmin step
Trying gmin =   7.5153E-08 Warning: Further gmin increment
Trying gmin =   7.5187E-08 Note: One successful gmin step
Trying gmin =   7.5170E-08 Warning: Further gmin increment
Trying gmin =   7.5183E-08 Note: One successful gmin step
Trying gmin =   7.5177E-08 Warning: Further gmin increment
Trying gmin =   7.5181E-08 Note: One successful gmin step
Trying gmin =   7.5179E-08 Warning: Last gmin step failed
Warning: True gmin stepping failed
Note: Starting dynamic gmin stepping
Trying gmin =   1.0000E-03 Note: One successful gmin step
Trying gmin =   1.0000E-04 Note: One successful gmin step
Trying gmin =   1.0000E-05 Warning: Further gmin increment
Trying gmin =   5.6234E-05 Note: One successful gmin step
Trying gmin =   2.3714E-05 Note: One successful gmin step
Trying gmin =   6.4938E-06 Warning: Further gmin increment
Trying gmin =   1.7154E-05 Note: One successful gmin step
Trying gmin =   1.0554E-05 Warning: Further gmin increment
Trying gmin =   1.5193E-05 Note: One successful gmin step
Trying gmin =   1.2663E-05 Warning: Further gmin increment
Trying gmin =   1.4517E-05 Note: One successful gmin step
Trying gmin =   1.3558E-05 Note: One successful gmin step
Trying gmin =   1.2238E-05 Warning: Further gmin increment
Trying gmin =   1.3215E-05 Note: One successful gmin step
Trying gmin =   1.2717E-05 Note: One successful gmin step
Trying gmin =   1.2005E-05 Note: One successful gmin step
Trying gmin =   1.1011E-05 Note: One successful gmin step
Trying gmin =   9.6718E-06 Note: One successful gmin step
Trying gmin =   7.9623E-06 Note: One successful gmin step
Trying gmin =   5.9475E-06 Note: One successful gmin step
Trying gmin =   3.8395E-06 Note: One successful gmin step
Trying gmin =   1.9915E-06 Note: One successful gmin step
Trying gmin =   7.4397E-07 Note: One successful gmin step
Trying gmin =   1.6987E-07 Warning: Further gmin increment
Trying gmin =   5.1428E-07 Note: One successful gmin step
Trying gmin =   2.9557E-07 Warning: Further gmin increment
Trying gmin =   4.4778E-07 Note: One successful gmin step
Trying gmin =   3.6380E-07 Note: One successful gmin step
Trying gmin =   2.6641E-07 Warning: Further gmin increment
Trying gmin =   3.3654E-07 Warning: Further gmin increment
Trying gmin =   3.5678E-07 Note: One successful gmin step
Trying gmin =   3.4651E-07 Warning: Further gmin increment
Trying gmin =   3.5418E-07 Note: One successful gmin step
Trying gmin =   3.5033E-07 Warning: Further gmin increment
Trying gmin =   3.5322E-07 Note: One successful gmin step
Trying gmin =   3.5177E-07 Warning: Further gmin increment
Trying gmin =   3.5285E-07 Note: One successful gmin step
Trying gmin =   3.5231E-07 Note: One successful gmin step
Trying gmin =   3.5150E-07 Warning: Further gmin increment
Trying gmin =   3.5211E-07 Note: One successful gmin step
Trying gmin =   3.5180E-07 Warning: Further gmin increment
Trying gmin =   3.5203E-07 Note: One successful gmin step
Trying gmin =   3.5192E-07 Warning: Further gmin increment
Trying gmin =   3.5200E-07 Note: One successful gmin step
Trying gmin =   3.5196E-07 Note: One successful gmin step
Trying gmin =   3.5189E-07 Warning: Further gmin increment
Trying gmin =   3.5194E-07 Note: One successful gmin step
Trying gmin =   3.5192E-07 Warning: Further gmin increment
Trying gmin =   3.5194E-07 Warning: Last gmin step failed
Error: -2.06761e+186, 2 out of range for ^
Warning: Dynamic gmin stepping failed
Note: Starting source stepping
Supplies reduced to   0.0000% Note: One successful source step
Supplies reduced to   0.1000% Note: One successful source step
Supplies reduced to   0.2000% Note: One successful source step
Supplies reduced to   0.3500% Note: One successful source step
Supplies reduced to   0.5750% Note: One successful source step
Supplies reduced to   0.9125% Note: One successful source step
Supplies reduced to   1.4188% Note: One successful source step
Supplies reduced to   2.1781% Note: One successful source step
Supplies reduced to   3.3172% Note: One successful source step
Supplies reduced to   5.0258% Note: One successful source step
Supplies reduced to   7.5887% Note: One successful source step
Supplies reduced to  11.4330% Note: One successful source step
Supplies reduced to  17.1995% Note: One successful source step
Supplies reduced to  25.8493% Note: One successful source step
Supplies reduced to  38.8239% Supplies reduced to  25.8493% Note: One successful source step
Supplies reduced to  26.8493% Note: One successful source step
Supplies reduced to  28.3493% Note: One successful source step
Supplies reduced to  30.5993% Note: One successful source step
Supplies reduced to  33.9743% Note: One successful source step
Supplies reduced to  39.0368% Note: One successful source step
Supplies reduced to  44.0993% Note: One successful source step
Supplies reduced to  51.6930% Note: One successful source step
Supplies reduced to  63.0836% Note: One successful source step
Supplies reduced to  80.1696% Supplies reduced to  63.0836% Note: One successful source step
Supplies reduced to  64.0836% Note: One successful source step
Supplies reduced to  65.5836% Note: One successful source step
Supplies reduced to  67.8336% Note: One successful source step
Supplies reduced to  71.2086% Supplies reduced to  67.8336% Note: One successful source step
Supplies reduced to  68.3399% Note: One successful source step
Supplies reduced to  69.0993% Note: One successful source step
Supplies reduced to  70.2383% Supplies reduced to  69.0993% Note: One successful source step
Supplies reduced to  69.2701% Note: One successful source step
Supplies reduced to  69.5264% Note: One successful source step
Supplies reduced to  69.9108% Supplies reduced to  69.5264% Note: One successful source step
Supplies reduced to  69.5841% Note: One successful source step
Supplies reduced to  69.6706% Note: One successful source step
Supplies reduced to  69.8003% Supplies reduced to  69.6706% Note: One successful source step
Supplies reduced to  69.6900% Note: One successful source step
Supplies reduced to  69.7192% Note: One successful source step
Supplies reduced to  69.7630% Note: One successful source step
Supplies reduced to  69.8287% Supplies reduced to  69.7630% Note: One successful source step
Supplies reduced to  69.7729% Supplies reduced to  69.7630% Note: One successful source step
Supplies reduced to  69.7645% Note: One successful source step
Supplies reduced to  69.7667% Note: One successful source step
Supplies reduced to  69.7700% Supplies reduced to  69.7667% Note: One successful source step
Supplies reduced to  69.7672% Note: One successful source step
Supplies reduced to  69.7680% Note: One successful source step
Supplies reduced to  69.7691% Note: One successful source step
Supplies reduced to  69.7708% Supplies reduced to  69.7691% Note: One successful source step
Supplies reduced to  69.7693% Note: One successful source step
Supplies reduced to  69.7697% Supplies reduced to  69.7693% Note: One successful source step
Supplies reduced to  69.7694% Note: One successful source step
Supplies reduced to  69.7695% Note: One successful source step
Supplies reduced to  69.7696% Supplies reduced to  69.7695% Note: One successful source step
Supplies reduced to  69.7695% Warning: source stepping failed
doAnalyses: Too many iterations without convergence

dc simulation(s) aborted
Error(parse.c--checkvalid): vldo_sup_2_8: zero length vector.
Error: RHS "abs((vldo_sup_2_8-vldo_sup_2)/0.8)" invalid
Error(parse.c--checkvalid): line_reg: zero length vector.
Error(parse.c--checkvalid): vin: zero length vector.
Error: RHS "vin-1.764" invalid
Error(parse.c--checkvalid): dropout: zero length vector.
Error: no such vector dropout
Note: No ".plot", ".print", or ".fourier" lines; no simulations run
pm                  =  5.148347e+01
Doing analysis at TEMP = 27.000000 and TNOM = 27.000000


No. of Data Rows : 91
psrr100             =  -8.751113e+01
psrr100k            =  -2.791934e+01
Doing analysis at TEMP = 27.000000 and TNOM = 27.000000


No. of Data Rows : 86
temp_coeff = 1.892812e+02
Doing analysis at TEMP = 27.000000 and TNOM = 27.000000


Error: measure  vldo_sup_2  (AT) : out of interval
 meas dc vldo_sup_2 find ldo_out at=2 failed!


Error: measure  vldo_sup_2_8  (AT) : out of interval
 meas dc vldo_sup_2_8 find ldo_out at=2.8 failed!


Error: measure  vin  (WHEN) : out of interval
 meas dc vin when v(ldo_out)=1.764 failed!

