Note: Starting true gmin stepping
Trying gmin =   1.0000E-03 Note: One successful gmin step
Trying gmin =   1.0000E-04 Note: One successful gmin step
Trying gmin =   1.0000E-05 Note: One successful gmin step
Trying gmin =   1.0000E-06 Note: One successful gmin step
Trying gmin =   1.0000E-07 Note: One successful gmin step
Trying gmin =   1.0000E-08 Warning: Further gmin increment
Trying gmin =   5.6234E-08 Note: One successful gmin step
Trying gmin =   4.2170E-08 Note: One successful gmin step
Trying gmin =   2.7384E-08 Warning: Further gmin increment
Trying gmin =   3.7855E-08 Note: One successful gmin step
Trying gmin =   3.2197E-08 Note: One successful gmin step
Trying gmin =   2.7384E-08 Note: One successful gmin step
Trying gmin =   2.1480E-08 Warning: Further gmin increment
Trying gmin =   2.5771E-08 Note: One successful gmin step
Trying gmin =   2.3528E-08 Warning: Further gmin increment
Trying gmin =   2.5191E-08 Note: One successful gmin step
Trying gmin =   2.4345E-08 Warning: Further gmin increment
Trying gmin =   2.4977E-08 Note: One successful gmin step
Trying gmin =   2.4659E-08 Warning: Further gmin increment
Trying gmin =   2.4897E-08 Note: One successful gmin step
Trying gmin =   2.4778E-08 Note: One successful gmin step
Trying gmin =   2.4600E-08 Warning: Further gmin increment
Trying gmin =   2.4733E-08 Note: One successful gmin step
Trying gmin =   2.4666E-08 Note: One successful gmin step
Trying gmin =   2.4567E-08 Warning: Further gmin increment
Trying gmin =   2.4641E-08 Warning: Further gmin increment
Trying gmin =   2.4660E-08 Warning: Further gmin increment
Trying gmin =   2.4665E-08 Note: One successful gmin step
Trying gmin =   2.4662E-08 Warning: Further gmin increment
Trying gmin =   2.4664E-08 Note: One successful gmin step
Trying gmin =   2.4663E-08 Warning: Last gmin step failed
Note: True gmin stepping completed
 Reference value :  0.00000e+00
No compatibility mode selected!


Circuit: * ldo netlist 

Doing analysis at TEMP = 0.000000 and TNOM = 27.000000


No. of Data Rows : 1
bg_out = 1.191991e+00
inn = 1.259183e+00
inp = 1.259171e+00
l1#branch = -1.11022e-16
ldo_out = 1.792174e+00
m.xm1.msky130_fd_pr__nfet_g5v0d10v5#body = 1.938580e-11
m.xm1.msky130_fd_pr__nfet_g5v0d10v5#dbody = 4.110853e-11
m.xm1.msky130_fd_pr__nfet_g5v0d10v5#sbody = 1.704887e-11
m.xm2.msky130_fd_pr__pfet_g5v0d10v5#body = 2.500000e+00
m.xm2.msky130_fd_pr__pfet_g5v0d10v5#dbody = 2.500000e+00
m.xm2.msky130_fd_pr__pfet_g5v0d10v5#sbody = 2.500000e+00
m.xm3.msky130_fd_pr__pfet_g5v0d10v5#body = 2.500000e+00
m.xm3.msky130_fd_pr__pfet_g5v0d10v5#dbody = 2.500000e+00
m.xm3.msky130_fd_pr__pfet_g5v0d10v5#sbody = 2.500000e+00
m.xm4.msky130_fd_pr__pfet_g5v0d10v5#body = 2.500000e+00
m.xm4.msky130_fd_pr__pfet_g5v0d10v5#dbody = 2.500000e+00
m.xm4.msky130_fd_pr__pfet_g5v0d10v5#sbody = 2.500000e+00
m.xm5.msky130_fd_pr__pfet_g5v0d10v5#body = 2.500000e+00
m.xm5.msky130_fd_pr__pfet_g5v0d10v5#dbody = 2.500000e+00
m.xm5.msky130_fd_pr__pfet_g5v0d10v5#sbody = 2.500000e+00
m.xm6.msky130_fd_pr__nfet_g5v0d10v5#body = 1.196232e-11
m.xm6.msky130_fd_pr__nfet_g5v0d10v5#dbody = 2.990579e-11
m.xm6.msky130_fd_pr__nfet_g5v0d10v5#sbody = 5.981163e-12
m.xm7.msky130_fd_pr__pfet_g5v0d10v5#body = 2.500000e+00
m.xm7.msky130_fd_pr__pfet_g5v0d10v5#dbody = 2.500000e+00
m.xm7.msky130_fd_pr__pfet_g5v0d10v5#sbody = 2.500000e+00
m.xm8.msky130_fd_pr__pfet_g5v0d10v5#body = 2.500000e+00
m.xm8.msky130_fd_pr__pfet_g5v0d10v5#dbody = 2.500000e+00
m.xm8.msky130_fd_pr__pfet_g5v0d10v5#sbody = 2.500000e+00
m.xm9.msky130_fd_pr__nfet_g5v0d10v5#body = 1.963409e-11
m.xm9.msky130_fd_pr__nfet_g5v0d10v5#dbody = 4.327187e-11
m.xm9.msky130_fd_pr__nfet_g5v0d10v5#sbody = 1.563040e-11
m.xm10.msky130_fd_pr__nfet_g5v0d10v5#body = 1.940921e-11
m.xm10.msky130_fd_pr__nfet_g5v0d10v5#dbody = 4.270966e-11
m.xm10.msky130_fd_pr__nfet_g5v0d10v5#sbody = 1.551795e-11
m.xm11.msky130_fd_pr__pfet_g5v0d10v5#body = 2.500000e+00
m.xm11.msky130_fd_pr__pfet_g5v0d10v5#dbody = 2.500000e+00
m.xm11.msky130_fd_pr__pfet_g5v0d10v5#sbody = 2.500000e+00
m.xm12.msky130_fd_pr__pfet_g5v0d10v5#body = 2.500000e+00
m.xm12.msky130_fd_pr__pfet_g5v0d10v5#dbody = 2.500000e+00
m.xm12.msky130_fd_pr__pfet_g5v0d10v5#sbody = 2.500000e+00
m.xm13.msky130_fd_pr__nfet_g5v0d10v5#body = 2.906656e-12
m.xm13.msky130_fd_pr__nfet_g5v0d10v5#dbody = 7.266630e-12
m.xm13.msky130_fd_pr__nfet_g5v0d10v5#sbody = 1.453338e-12
m.xm14.msky130_fd_pr__pfet_g5v0d10v5#body = 2.500000e+00
m.xm14.msky130_fd_pr__pfet_g5v0d10v5#dbody = 2.500000e+00
m.xm14.msky130_fd_pr__pfet_g5v0d10v5#sbody = 2.500000e+00
m.xm15.msky130_fd_pr__nfet_g5v0d10v5#body = 5.109784e-16
m.xm15.msky130_fd_pr__nfet_g5v0d10v5#dbody = 1.277410e-15
m.xm15.msky130_fd_pr__nfet_g5v0d10v5#sbody = 2.555248e-16
m.xm16.msky130_fd_pr__nfet_g5v0d10v5#body = 4.698990e-11
m.xm16.msky130_fd_pr__nfet_g5v0d10v5#dbody = 8.599507e-11
m.xm16.msky130_fd_pr__nfet_g5v0d10v5#sbody = 5.497464e-11
m.xm17.msky130_fd_pr__pfet_g5v0d10v5#body = 2.500000e+00
m.xm17.msky130_fd_pr__pfet_g5v0d10v5#dbody = 2.500000e+00
m.xm17.msky130_fd_pr__pfet_g5v0d10v5#sbody = 2.500000e+00
m.xm18.msky130_fd_pr__nfet_g5v0d10v5#body = 2.085860e-11
m.xm18.msky130_fd_pr__nfet_g5v0d10v5#dbody = 5.179009e-11
m.xm18.msky130_fd_pr__nfet_g5v0d10v5#sbody = 1.042931e-11
m.xm19.msky130_fd_pr__nfet_g5v0d10v5#body = 1.940667e-11
m.xm19.msky130_fd_pr__nfet_g5v0d10v5#dbody = 4.116069e-11
m.xm19.msky130_fd_pr__nfet_g5v0d10v5#sbody = 1.705930e-11
m.xm20.msky130_fd_pr__nfet_g5v0d10v5#body = 1.224070e-11
m.xm20.msky130_fd_pr__nfet_g5v0d10v5#dbody = 3.060174e-11
m.xm20.msky130_fd_pr__nfet_g5v0d10v5#sbody = 6.120361e-12
m.xm22.msky130_fd_pr__nfet_g5v0d10v5#body = 3.678021e-12
m.xm22.msky130_fd_pr__nfet_g5v0d10v5#dbody = 9.195048e-12
m.xm22.msky130_fd_pr__nfet_g5v0d10v5#sbody = 1.839015e-12
m.xm24.msky130_fd_pr__pfet_g5v0d10v5#body = 2.500000e+00
m.xm24.msky130_fd_pr__pfet_g5v0d10v5#dbody = 2.500000e+00
m.xm24.msky130_fd_pr__pfet_g5v0d10v5#sbody = 2.500000e+00
m.xm26.msky130_fd_pr__pfet_g5v0d10v5#body = 2.500000e+00
m.xm26.msky130Note: Starting true gmin stepping
Trying gmin =   1.0000E-03 Note: One successful gmin step
Trying gmin =   1.0000E-04 Note: One successful gmin step
Trying gmin =   1.0000E-05 Note: One successful gmin step
Trying gmin =   1.0000E-06 Note: One successful gmin step
Trying gmin =   1.0000E-07 Note: One successful gmin step
Trying gmin =   1.0000E-08 Warning: Further gmin increment
Trying gmin =   5.6234E-08 Note: One successful gmin step
Trying gmin =   4.2170E-08 Note: One successful gmin step
Trying gmin =   2.7384E-08 Warning: Further gmin increment
Trying gmin =   3.7855E-08 Note: One successful gmin step
Trying gmin =   3.2197E-08 Note: One successful gmin step
Trying gmin =   2.7384E-08 Note: One successful gmin step
Trying gmin =   2.1480E-08 Warning: Further gmin increment
Trying gmin =   2.5771E-08 Note: One successful gmin step
Trying gmin =   2.3528E-08 Warning: Further gmin increment
Trying gmin =   2.5191E-08 Note: One successful gmin step
Trying gmin =   2.4345E-08 Warning: Further gmin increment
Trying gmin =   2.4977E-08 Note: One successful gmin step
Trying gmin =   2.4659E-08 Warning: Further gmin increment
Trying gmin =   2.4897E-08 Note: One successful gmin step
Trying gmin =   2.4778E-08 Note: One successful gmin step
Trying gmin =   2.4600E-08 Warning: Further gmin increment
Trying gmin =   2.4733E-08 Note: One successful gmin step
Trying gmin =   2.4666E-08 Note: One successful gmin step
Trying gmin =   2.4567E-08 Warning: Further gmin increment
Trying gmin =   2.4641E-08 Warning: Further gmin increment
Trying gmin =   2.4660E-08 Warning: Further gmin increment
Trying gmin =   2.4665E-08 Note: One successful gmin step
Trying gmin =   2.4662E-08 Warning: Further gmin increment
Trying gmin =   2.4664E-08 Note: One successful gmin step
Trying gmin =   2.4663E-08 Warning: Last gmin step failed
Note: True gmin stepping completed
 Reference value :  1.00000e+00_fd_pr__pfet_g5v0d10v5#dbody = 2.500000e+00
m.xm26.msky130_fd_pr__pfet_g5v0d10v5#sbody = 2.500000e+00
mir = 1.256621e+00
net1 = 7.690115e-01
net2 = 4.085383e-05
net3 = 8.225373e-01
net4 = 2.942340e-01
net5 = 1.258290e+00
net6 = 9.569777e-01
net7 = 8.225253e-01
net8 = 1.320199e+00
net9 = 1.338190e+00
net10 = 2.325307e-01
net11 = 1.654430e+00
net12 = 1.654430e+00
net13 = 0.000000e+00
out = 1.654430e+00
pos = 1.192141e+00
q.xq2.qsky130_fd_pr__pnp_05v5_w0p68l0p68#collcx = 1.782158e-03
q.xq3.qsky130_fd_pr__pnp_05v5_w0p68l0p68#collcx = 2.242050e-04
q.xq4.qsky130_fd_pr__pnp_05v5_w0p68l0p68#collcx = 2.242050e-04
q.xq8.qsky130_fd_pr__pnp_05v5_w0p68l0p68#collcx = 2.242050e-04
q.xq10.qsky130_fd_pr__pnp_05v5_w0p68l0p68#collcx = 2.242050e-04
q.xq12.qsky130_fd_pr__pnp_05v5_w0p68l0p68#collcx = 2.242050e-04
q.xq14.qsky130_fd_pr__pnp_05v5_w0p68l0p68#collcx = 2.242050e-04
q.xq16.qsky130_fd_pr__pnp_05v5_w0p68l0p68#collcx = 2.242050e-04
q.xq18.qsky130_fd_pr__pnp_05v5_w0p68l0p68#collcx = 2.242050e-04
vb = 9.792541e-01
vdd = 2.500000e+00
vs#branch = -1.66478e-04
vt#branch = 0.000000e+00
xc1.a = 0.000000e+00
xc1.b1 = 0.000000e+00
xc3.a = 1.654430e+00
xc3.b1 = 1.654430e+00
xr1.xsky130_fd_pr__res_xhigh_po_0p69.ra = 8.297563e-01
xr2.xsky130_fd_pr__res_xhigh_po_0p69.ra = 8.297683e-01
xr3.xsky130_fd_pr__res_xhigh_po_0p69.ra = 5.158660e-03
xr4.xsky130_fd_pr__res_xhigh_po_0p69.ra = 7.712053e-01
xr5.xsky130_fd_pr__res_xhigh_po_0p69.ra = 5.158580e-03
xr6.xsky130_fd_pr__res_xhigh_po_0p69.ra = 7.699805e-03
xr7.xsky130_fd_pr__res_xhigh_po_0p69.ra = 1.654430e+00
xr8.xsky130_fd_pr__res_xhigh_po_0p69.ra = 1.204955e+00
xr9.xsky130_fd_pr__res_xhigh_po_0p69.ra = 1.343801e-02
Doing analysis at TEMP = 0.000000 and TNOM = 27.000000


No. of Data Rows : 91
Note: Starting true gmin stepping
Trying gmin =   1.0000E-03 Note: One successful gmin step
Trying gmin =   1.0000E-04 Note: One successful gmin step
Trying gmin =   1.0000E-05 Note: One successful gmin step
Trying gmin =   1.0000E-06 Note: One successful gmin step
Trying gmin =   1.0000E-07 Note: One successful gmin step
Trying gmin =   1.0000E-08 Warning: Further gmin increment
Trying gmin =   5.6234E-08 Note: One successful gmin step
Trying gmin =   4.2170E-08 Note: One successful gmin step
Trying gmin =   2.7384E-08 Warning: Further gmin increment
Trying gmin =   3.7855E-08 Note: One successful gmin step
Trying gmin =   3.2197E-08 Note: One successful gmin step
Trying gmin =   2.7384E-08 Note: One successful gmin step
Trying gmin =   2.1480E-08 Warning: Further gmin increment
Trying gmin =   2.5771E-08 Note: One successful gmin step
Trying gmin =   2.3528E-08 Warning: Further gmin increment
Trying gmin =   2.5191E-08 Note: One successful gmin step
Trying gmin =   2.4345E-08 Warning: Further gmin increment
Trying gmin =   2.4977E-08 Note: One successful gmin step
Trying gmin =   2.4659E-08 Warning: Further gmin increment
Trying gmin =   2.4897E-08 Note: One successful gmin step
Trying gmin =   2.4778E-08 Note: One successful gmin step
Trying gmin =   2.4600E-08 Warning: Further gmin increment
Trying gmin =   2.4733E-08 Note: One successful gmin step
Trying gmin =   2.4666E-08 Note: One successful gmin step
Trying gmin =   2.4567E-08 Warning: Further gmin increment
Trying gmin =   2.4641E-08 Warning: Further gmin increment
Trying gmin =   2.4660E-08 Warning: Further gmin increment
Trying gmin =   2.4665E-08 Note: One successful gmin step
Trying gmin =   2.4662E-08 Warning: Further gmin increment
Trying gmin =   2.4664E-08 Note: One successful gmin step
Trying gmin =   2.4663E-08 Warning: Last gmin step failed
Note: True gmin stepping completed
 Reference value :  1.00000e+00Note: Starting true gmin stepping
Trying gmin =   1.0000E-03 Note: One successful gmin step
Trying gmin =   1.0000E-04 Note: One successful gmin step
Trying gmin =   1.0000E-05 Note: One successful gmin step
Trying gmin =   1.0000E-06 Note: One successful gmin step
Trying gmin =   1.0000E-07 Note: One successful gmin step
Trying gmin =   3.1623E-08 Warning: Further gmin increment
Trying gmin =   7.4989E-08 Note: One successful gmin step
Trying gmin =   4.8697E-08 Note: One successful gmin step
Trying gmin =   2.5483E-08 Warning: Further gmin increment
Trying gmin =   4.1418E-08 Warning: Further gmin increment
Trying gmin =   4.6765E-08 Note: One successful gmin step
Trying gmin =   4.4010E-08 Warning: Further gmin increment
Trying gmin =   4.6061E-08 Warning: Further gmin increment
Trying gmin =   4.6588E-08 Note: One successful gmin step
Trying gmin =   4.6324E-08 Note: One successful gmin step
Trying gmin =   4.6192E-08 Note: One successful gmin step
Trying gmin =   4.5995E-08 Note: One successful gmin step
Trying gmin =   4.5702E-08 Note: One successful gmin step
Trying gmin =   4.5265E-08 Note: One successful gmin step
Trying gmin =   4.4617E-08 Note: One successful gmin step
Trying gmin =   4.3663E-08 Warning: Further gmin increment
Trying gmin =   4.4377E-08 Note: One successful gmin step
Trying gmin =   4.4019E-08 Warning: Further gmin increment
Trying gmin =   4.4287E-08 Note: One successful gmin step
Trying gmin =   4.4153E-08 Note: One successful gmin step
Trying gmin =   4.3952E-08 Warning: Further gmin increment
Trying gmin =   4.4102E-08 Note: One successful gmin step
Trying gmin =   4.4027E-08 Note: One successful gmin step
Trying gmin =   4.3914E-08 Warning: Further gmin increment
Trying gmin =   4.3999E-08 Warning: Further gmin increment
Trying gmin =   4.4020E-08 Warning: Further gmin increment
Trying gmin =   4.4025E-08 Warning: Last gmin step failed
Warning: True gmin stepping failed
Note: Starting dynamic gmin stepping
Trying gmin =   1.0000E-03 Note: One successful gmin step
Trying gmin =   1.0000E-04 Note: One successful gmin step
Trying gmin =   1.0000E-05 Warning: Further gmin increment
Trying gmin =   5.6234E-05 Note: One successful gmin step
Trying gmin =   2.3714E-05 Note: One successful gmin step
Trying gmin =   6.4938E-06 Warning: Further gmin increment
Trying gmin =   1.7154E-05 Note: One successful gmin step
Trying gmin =   1.0554E-05 Warning: Further gmin increment
Trying gmin =   1.5193E-05 Note: One successful gmin step
Trying gmin =   1.2663E-05 Note: One successful gmin step
Trying gmin =   9.6358E-06 Warning: Further gmin increment
Trying gmin =   1.1827E-05 Note: One successful gmin step
Trying gmin =   1.0675E-05 Note: One successful gmin step
Trying gmin =   9.1546E-06 Note: One successful gmin step
Trying gmin =   7.2699E-06 Note: One successful gmin step
Trying gmin =   5.1447E-06 Note: One successful gmin step
Trying gmin =   3.0627E-06 Note: One successful gmin step
Trying gmin =   1.8233E-06 Note: One successful gmin step
Trying gmin =   8.3747E-07 Note: One successful gmin step
Trying gmin =   2.6070E-07 Note: One successful gmin step
Trying gmin =   4.5281E-08 Warning: Further gmin increment
Trying gmin =   1.6830E-07 Warning: Further gmin increment
Trying gmin =   2.3369E-07 Note: One successful gmin step
Trying gmin =   1.9832E-07 Warning: Further gmin increment
Trying gmin =   2.2429E-07 Note: One successful gmin step
Trying gmin =   2.1091E-07 Warning: Further gmin increment
Trying gmin =   2.2087E-07 Note: One successful gmin step
Trying gmin =   2.1583E-07 Note: One successful gmin step
Trying gmin =   2.0849E-07 Warning: Further gmin increment
Trying gmin =   2.1397E-07 Warning: Further gmin increment
Trying gmin =   2.1536E-07 Note: One successful gmin step
Trying gmin =   2.1466E-07 Warning: Further gmin increment
Trying gmin =   2.1519E-07 Note: One successful gmin step
Trying gmin =   2.1493E-07 Warning: Further gmin increment
Trying gmin =   2.1512E-07 Note: One successful gmin step
Trying gmin =   2.1502E-07 Note: One successful gmin step
Trying gmin =   2.1488E-07 Warning: Further gmin increment
Trying gmin =   2.1499E-07 Warning: Further gmin increment
Trying gmin =   2.1501E-07 Note: One successful gmin step
Trying gmin =   2.1500E-07 Note: One successful gmin step
Trying gmin =   2.1498E-07 Warning: Further gmin increment
Trying gmin =   2.1500E-07 Warning: Last gmin step failed
Warning: Dynamic gmin stepping failed
Note: Starting source stepping
Supplies reduced to   0.0000% Note: One successful source step
Supplies reduced to   0.1000% Note: One successful source step
Supplies reduced to   0.2000% Note: One successful source step
Supplies reduced to   0.3500% Note: One successful source step
Supplies reduced to   0.5750% Note: One successful source step
Supplies reduced to   0.9125% Note: One successful source step
Supplies reduced to   1.4188% Note: One successful source step
Supplies reduced to   2.1781% Note: One successful source step
Supplies reduced to   3.3172% Note: One successful source step
Supplies reduced to   5.0258% Note: One successful source step
Supplies reduced to   7.5887% Note: One successful source step
Supplies reduced to  11.4330% Note: One successful source step
Supplies reduced to  17.1995% Note: One successful source step
Supplies reduced to  25.8493% Supplies reduced to  17.1995% Note: One successful source step
Supplies reduced to  18.1995% Note: One successful source step
Supplies reduced to  19.6995% Note: One successful source step
Supplies reduced to  21.9495% Note: One successful source step
Supplies reduced to  25.3245% Note: One successful source step
Supplies reduced to  30.3870% Note: One successful source step
Supplies reduced to  35.4495% Note: One successful source step
Supplies reduced to  37.9808% Note: One successful source step
Supplies reduced to  41.7776% Note: One successful source step
Supplies reduced to  47.4729% Note: One successful source step
Supplies reduced to  56.0159% Note: One successful source step
Supplies reduced to  64.5589% Note: One successful source step
Supplies reduced to  77.3733% Supplies reduced to  64.5589% Note: One successful source step
Supplies reduced to  65.5589% Note: One successful source step
Supplies reduced to  67.0589% Note: One successful source step
Supplies reduced to  69.3089% Note: One successful source step
Supplies reduced to  72.6839% Note: One successful source step
Supplies reduced to  77.7464% Supplies reduced to  72.6839% Note: One successful source step
Supplies reduced to  73.4433% Note: One successful source step
Supplies reduced to  74.5823% Note: One successful source step
Supplies reduced to  76.2909% Supplies reduced to  74.5823% Note: One successful source step
Supplies reduced to  74.8386% Note: One successful source step
Supplies reduced to  75.2230% Supplies reduced to  74.8386% Note: One successful source step
Supplies reduced to  74.8963% Note: One successful source step
Supplies reduced to  74.9828% Note: One successful source step
Supplies reduced to  75.1125% Supplies reduced to  74.9828% Note: One successful source step
Supplies reduced to  75.0022% Note: One successful source step
Supplies reduced to  75.0314% Note: One successful source step
Supplies reduced to  75.0752% Note: One successful source step
Supplies reduced to  75.1409% Supplies reduced to  75.0752% Note: One successful source step
Supplies reduced to  75.0851% Note: One successful source step
Supplies reduced to  75.0999% Note: One successful source step
Supplies reduced to  75.1220% Supplies reduced to  75.0999% Note: One successful source step
Supplies reduced to  75.1032% Supplies reduced to  75.0999% Note: One successful source step
Supplies reduced to  75.1004% Note: One successful source step
Supplies reduced to  75.1011% Note: One successful source step
Supplies reduced to  75.1022% Supplies reduced to  75.1011% Note: One successful source step
Supplies reduced to  75.1013% Supplies reduced to  75.1011% Note: One successful source step
Supplies reduced to  75.1011% Note: One successful source step
Supplies reduced to  75.1012% Note: One successful source step
Supplies reduced to  75.1012% Warning: source stepping failed
doAnalyses: Too many iterations without convergence

dc simulation(s) aborted
Error(parse.c--checkvalid): vldo_sup_2_8: zero length vector.
Error: RHS "abs((vldo_sup_2_8-vldo_sup_2)/0.8)" invalid
Error(parse.c--checkvalid): line_reg: zero length vector.
Error(parse.c--checkvalid): vin: zero length vector.
Error: RHS "vin-1.764" invalid
Error(parse.c--checkvalid): dropout: zero length vector.
Error: no such vector dropout
Note: No ".plot", ".print", or ".fourier" lines; no simulations run
pm                  =  4.850216e+01
Doing analysis at TEMP = 0.000000 and TNOM = 27.000000


No. of Data Rows : 91
psrr100             =  -6.020378e+01
psrr100k            =  -2.608203e+01
Doing analysis at TEMP = 0.000000 and TNOM = 27.000000


No. of Data Rows : 86
temp_coeff = 1.093576e+02
Doing analysis at TEMP = 0.000000 and TNOM = 27.000000


Error: measure  vldo_sup_2  (AT) : out of interval
 meas dc vldo_sup_2 find ldo_out at=2 failed!


Error: measure  vldo_sup_2_8  (AT) : out of interval
 meas dc vldo_sup_2_8 find ldo_out at=2.8 failed!


Error: measure  vin  (WHEN) : out of interval
 meas dc vin when v(ldo_out)=1.764 failed!

