Note: Starting true gmin stepping
Trying gmin =   1.0000E-03 Note: One successful gmin step
Trying gmin =   1.0000E-04 Note: One successful gmin step
Trying gmin =   1.0000E-05 Note: One successful gmin step
Trying gmin =   1.0000E-06 Note: One successful gmin step
Trying gmin =   1.0000E-07 Warning: Further gmin increment
Trying gmin =   5.6234E-07 Note: One successful gmin step
Trying gmin =   2.3714E-07 Note: One successful gmin step
Trying gmin =   6.4938E-08 Warning: Further gmin increment
Trying gmin =   1.7154E-07 Note: One successful gmin step
Trying gmin =   1.0554E-07 Warning: Further gmin increment
Trying gmin =   1.5193E-07 Note: One successful gmin step
Trying gmin =   1.2663E-07 Note: One successful gmin step
Trying gmin =   1.1561E-07 Note: One successful gmin step
Trying gmin =   1.0085E-07 Note: One successful gmin step
Trying gmin =   8.2162E-08 Note: One successful gmin step
Trying gmin =   6.0421E-08 Note: One successful gmin step
Trying gmin =   3.8103E-08 Note: One successful gmin step
Trying gmin =   1.9082E-08 Note: One successful gmin step
Trying gmin =   6.7626E-09 Note: One successful gmin step
Trying gmin =   1.4268E-09 Note: One successful gmin step
Trying gmin =   1.4268E-10 Note: One successful gmin step
Trying gmin =   1.4268E-11 Note: One successful gmin step
Trying gmin =   1.4268E-12 Note: One successful gmin step
Trying gmin =   1.0000E-12 Note: One successful gmin step
Note: True gmin stepping completed
 Reference value :  0.00000e+00
No compatibility mode selected!


Circuit: * ldo netlist 

Doing analysis at TEMP = 0.000000 and TNOM = 27.000000


No. of Data Rows : 1
bg_out = 5.782868e-01
inn = 7.980703e-01
inp = 7.976040e-01
l1#branch = 0.000000e+00
ldo_out = 9.547825e-01
m.xm1.msky130_fd_pr__nfet_g5v0d10v5#body = 1.084162e-11
m.xm1.msky130_fd_pr__nfet_g5v0d10v5#dbody = 2.602349e-11
m.xm1.msky130_fd_pr__nfet_g5v0d10v5#sbody = 6.501366e-12
m.xm2.msky130_fd_pr__pfet_g5v0d10v5#body = 2.100000e+00
m.xm2.msky130_fd_pr__pfet_g5v0d10v5#dbody = 2.100000e+00
m.xm2.msky130_fd_pr__pfet_g5v0d10v5#sbody = 2.100000e+00
m.xm3.msky130_fd_pr__pfet_g5v0d10v5#body = 2.100000e+00
m.xm3.msky130_fd_pr__pfet_g5v0d10v5#dbody = 2.100000e+00
m.xm3.msky130_fd_pr__pfet_g5v0d10v5#sbody = 2.100000e+00
m.xm4.msky130_fd_pr__pfet_g5v0d10v5#body = 2.100000e+00
m.xm4.msky130_fd_pr__pfet_g5v0d10v5#dbody = 2.100000e+00
m.xm4.msky130_fd_pr__pfet_g5v0d10v5#sbody = 2.100000e+00
m.xm5.msky130_fd_pr__pfet_g5v0d10v5#body = 2.100000e+00
m.xm5.msky130_fd_pr__pfet_g5v0d10v5#dbody = 2.100000e+00
m.xm5.msky130_fd_pr__pfet_g5v0d10v5#sbody = 2.100000e+00
m.xm6.msky130_fd_pr__nfet_g5v0d10v5#body = 1.079905e-11
m.xm6.msky130_fd_pr__nfet_g5v0d10v5#dbody = 2.699763e-11
m.xm6.msky130_fd_pr__nfet_g5v0d10v5#sbody = 5.399530e-12
m.xm7.msky130_fd_pr__pfet_g5v0d10v5#body = 2.100000e+00
m.xm7.msky130_fd_pr__pfet_g5v0d10v5#dbody = 2.100000e+00
m.xm7.msky130_fd_pr__pfet_g5v0d10v5#sbody = 2.100000e+00
m.xm8.msky130_fd_pr__pfet_g5v0d10v5#body = 2.100000e+00
m.xm8.msky130_fd_pr__pfet_g5v0d10v5#dbody = 2.100000e+00
m.xm8.msky130_fd_pr__pfet_g5v0d10v5#sbody = 2.100000e+00
m.xm9.msky130_fd_pr__nfet_g5v0d10v5#body = 1.372762e-11
m.xm9.msky130_fd_pr__nfet_g5v0d10v5#dbody = 3.428617e-11
m.xm9.msky130_fd_pr__nfet_g5v0d10v5#sbody = 6.896697e-12
m.xm10.msky130_fd_pr__nfet_g5v0d10v5#body = 1.102734e-11
m.xm10.msky130_fd_pr__nfet_g5v0d10v5#dbody = 2.753547e-11
m.xm10.msky130_fd_pr__nfet_g5v0d10v5#sbody = 5.546558e-12
m.xm11.msky130_fd_pr__pfet_g5v0d10v5#body = 2.100000e+00
m.xm11.msky130_fd_pr__pfet_g5v0d10v5#dbody = 2.100000e+00
m.xm11.msky130_fd_pr__pfet_g5v0d10v5#sbody = 2.100000e+00
m.xm12.msky130_fd_pr__pfet_g5v0d10v5#body = 2.100000e+00
m.xm12.msky130_fd_pr__pfet_g5v0d10v5#dbody = 2.100000e+00
m.xm12.msky130_fd_pr__pfet_g5v0d10v5#sbody = 2.100000e+00
m.xm13.msky130_fd_pr__nfet_g5v0d10v5#body = 1.644213e-14
m.xm13.msky130_fd_pr__nfet_g5v0d10v5#dbody = 4.110523e-14
m.xm13.msky130_fd_pr__nfet_g5v0d10v5#sbody = 8.221172e-15
m.xm14.msky130_fd_pr__pfet_g5v0d10v5#body = 2.100000e+00
m.xm14.msky130_fd_pr__pfet_g5v0d10v5#dbody = 2.100000e+00
m.xm14.msky130_fd_pr__pfet_g5v0d10v5#sbody = 2.100000e+00
m.xm15.msky130_fd_pr__nfet_g5v0d10v5#body = 6.221337e-13
m.xm15.msky130_fd_pr__nfet_g5v0d10v5#dbody = 1.555334e-12
m.xm15.msky130_fd_pr__nfet_g5v0d10v5#sbody = 3.110669e-13
m.xm16.msky130_fd_pr__nfet_g5v0d10v5#body = 3.622600e-11
m.xm16.msky130_fd_pr__nfet_g5v0d10v5#dbody = 7.061312e-11
m.xm16.msky130_fd_pr__nfet_g5v0d10v5#sbody = 3.806487e-11
m.xm17.msky130_fd_pr__pfet_g5v0d10v5#body = 2.100000e+00
m.xm17.msky130_fd_pr__pfet_g5v0d10v5#dbody = 2.100000e+00
m.xm17.msky130_fd_pr__pfet_g5v0d10v5#sbody = 2.100000e+00
m.xm18.msky130_fd_pr__nfet_g5v0d10v5#body = 1.157203e-11
m.xm18.msky130_fd_pr__nfet_g5v0d10v5#dbody = 2.893007e-11
m.xm18.msky130_fd_pr__nfet_g5v0d10v5#sbody = 5.786021e-12
m.xm19.msky130_fd_pr__nfet_g5v0d10v5#body = 1.152088e-11
m.xm19.msky130_fd_pr__nfet_g5v0d10v5#dbody = 2.772165e-11
m.xm19.msky130_fd_pr__nfet_g5v0d10v5#sbody = 6.840997e-12
m.xm20.msky130_fd_pr__nfet_g5v0d10v5#body = 1.074893e-11
m.xm20.msky130_fd_pr__nfet_g5v0d10v5#dbody = 2.687232e-11
m.xm20.msky130_fd_pr__nfet_g5v0d10v5#sbody = 5.374471e-12
m.xm22.msky130_fd_pr__nfet_g5v0d10v5#body = 5.403084e-13
m.xm22.msky130_fd_pr__nfet_g5v0d10v5#dbody = 1.350770e-12
m.xm22.msky130_fd_pr__nfet_g5v0d10v5#sbody = 2.701555e-13
m.xm24.msky130_fd_pr__pfet_g5v0d10v5#body = 2.100000e+00
m.xm24.msky130_fd_pr__pfet_g5v0d10v5#dbody = 2.100000e+00
m.xm24.msky130_fd_pr__pfet_g5v0d10v5#sbody = 2.100000e+00
m.xm26.msky130_fd_pr__pfet_g5v0d10v5#body = 2.100000e+00
m.xm26.msky130Note: Starting true gmin stepping
Trying gmin =   1.0000E-03 Note: One successful gmin step
Trying gmin =   1.0000E-04 Note: One successful gmin step
Trying gmin =   1.0000E-05 Note: One successful gmin step
Trying gmin =   1.0000E-06 Note: One successful gmin step
Trying gmin =   1.0000E-07 Warning: Further gmin increment
Trying gmin =   5.6234E-07 Note: One successful gmin step
Trying gmin =   2.3714E-07 Note: One successful gmin step
Trying gmin =   6.4938E-08 Warning: Further gmin increment
Trying gmin =   1.7154E-07 Note: One successful gmin step
Trying gmin =   1.0554E-07 Warning: Further gmin increment
Trying gmin =   1.5193E-07 Note: One successful gmin step
Trying gmin =   1.2663E-07 Note: One successful gmin step
Trying gmin =   1.1561E-07 Note: One successful gmin step
Trying gmin =   1.0085E-07 Note: One successful gmin step
Trying gmin =   8.2162E-08 Note: One successful gmin step
Trying gmin =   6.0421E-08 Note: One successful gmin step
Trying gmin =   3.8103E-08 Note: One successful gmin step
Trying gmin =   1.9082E-08 Note: One successful gmin step
Trying gmin =   6.7626E-09 Note: One successful gmin step
Trying gmin =   1.4268E-09 Note: One successful gmin step
Trying gmin =   1.4268E-10 Note: One successful gmin step
Trying gmin =   1.4268E-11 Note: One successful gmin step
Trying gmin =   1.4268E-12 Note: One successful gmin step
Trying gmin =   1.0000E-12 Note: One successful gmin step
Note: True gmin stepping completed
 Reference value :  1.00000e+00_fd_pr__pfet_g5v0d10v5#dbody = 2.100000e+00
m.xm26.msky130_fd_pr__pfet_g5v0d10v5#sbody = 2.100000e+00
mir = 8.241025e-01
net1 = 6.118188e-01
net2 = 4.975779e-02
net3 = 6.123755e-01
net4 = 4.321842e-02
net5 = 8.784435e-01
net6 = 8.639167e-01
net7 = 6.119046e-01
net8 = 8.808688e-01
net9 = 1.096891e+00
net10 = 1.315283e-03
net11 = 9.257606e-01
net12 = 9.257606e-01
net13 = 0.000000e+00
out = 9.257606e-01
pos = 5.810447e-01
q.xq2.qsky130_fd_pr__pnp_05v5_w0p68l0p68#collcx = 3.662800e-07
q.xq3.qsky130_fd_pr__pnp_05v5_w0p68l0p68#collcx = 3.579965e-07
q.xq4.qsky130_fd_pr__pnp_05v5_w0p68l0p68#collcx = 3.579965e-07
q.xq8.qsky130_fd_pr__pnp_05v5_w0p68l0p68#collcx = 3.579965e-07
q.xq10.qsky130_fd_pr__pnp_05v5_w0p68l0p68#collcx = 3.579965e-07
q.xq12.qsky130_fd_pr__pnp_05v5_w0p68l0p68#collcx = 3.579965e-07
q.xq14.qsky130_fd_pr__pnp_05v5_w0p68l0p68#collcx = 3.579965e-07
q.xq16.qsky130_fd_pr__pnp_05v5_w0p68l0p68#collcx = 3.579965e-07
q.xq18.qsky130_fd_pr__pnp_05v5_w0p68l0p68#collcx = 3.579965e-07
vb = 8.599126e-01
vdd = 2.100000e+00
vs#branch = -5.35986e-03
vt#branch = 0.000000e+00
xc1.a = 0.000000e+00
xc1.b1 = 0.000000e+00
xc3.a = 9.257606e-01
xc3.b1 = 9.257606e-01
xr1.xsky130_fd_pr__res_xhigh_po_0p69.ra = 6.146250e-01
xr2.xsky130_fd_pr__res_xhigh_po_0p69.ra = 6.150958e-01
xr3.xsky130_fd_pr__res_xhigh_po_0p69.ra = 2.791847e-03
xr4.xsky130_fd_pr__res_xhigh_po_0p69.ra = 6.118213e-01
xr5.xsky130_fd_pr__res_xhigh_po_0p69.ra = 2.789595e-03
xr6.xsky130_fd_pr__res_xhigh_po_0p69.ra = 2.816198e-03
xr7.xsky130_fd_pr__res_xhigh_po_0p69.ra = 9.257606e-01
xr8.xsky130_fd_pr__res_xhigh_po_0p69.ra = 5.854195e-01
xr9.xsky130_fd_pr__res_xhigh_po_0p69.ra = 4.439676e-03
Doing analysis at TEMP = 0.000000 and TNOM = 27.000000


No. of Data Rows : 91
Error: no such vector PM
Note: Starting true gmin stepping
Trying gmin =   1.0000E-03 Note: One successful gmin step
Trying gmin =   1.0000E-04 Note: One successful gmin step
Trying gmin =   1.0000E-05 Note: One successful gmin step
Trying gmin =   1.0000E-06 Note: One successful gmin step
Trying gmin =   1.0000E-07 Warning: Further gmin increment
Trying gmin =   5.6234E-07 Note: One successful gmin step
Trying gmin =   2.3714E-07 Note: One successful gmin step
Trying gmin =   6.4938E-08 Warning: Further gmin increment
Trying gmin =   1.7154E-07 Note: One successful gmin step
Trying gmin =   1.0554E-07 Warning: Further gmin increment
Trying gmin =   1.5193E-07 Note: One successful gmin step
Trying gmin =   1.2663E-07 Note: One successful gmin step
Trying gmin =   1.1561E-07 Note: One successful gmin step
Trying gmin =   1.0085E-07 Note: One successful gmin step
Trying gmin =   8.2162E-08 Note: One successful gmin step
Trying gmin =   6.0421E-08 Note: One successful gmin step
Trying gmin =   3.8103E-08 Note: One successful gmin step
Trying gmin =   1.9082E-08 Note: One successful gmin step
Trying gmin =   6.7626E-09 Note: One successful gmin step
Trying gmin =   1.4268E-09 Note: One successful gmin step
Trying gmin =   1.4268E-10 Note: One successful gmin step
Trying gmin =   1.4268E-11 Note: One successful gmin step
Trying gmin =   1.4268E-12 Note: One successful gmin step
Trying gmin =   1.0000E-12 Note: One successful gmin step
Note: True gmin stepping completed
 Reference value :  1.00000e+00Note: Starting true gmin stepping
Trying gmin =   1.0000E-03 Note: One successful gmin step
Trying gmin =   1.0000E-04 Note: One successful gmin step
Trying gmin =   1.0000E-05 Note: One successful gmin step
Trying gmin =   1.0000E-06 Note: One successful gmin step
Trying gmin =   1.0000E-07 Note: One successful gmin step
Trying gmin =   1.0000E-08 Warning: Further gmin increment
Trying gmin =   5.6234E-08 Note: One successful gmin step
Trying gmin =   2.3714E-08 Warning: Further gmin increment
Trying gmin =   4.5316E-08 Note: One successful gmin step
Trying gmin =   3.2781E-08 Warning: Further gmin increment
Trying gmin =   4.1792E-08 Warning: Further gmin increment
Trying gmin =   4.4408E-08 Note: One successful gmin step
Trying gmin =   4.3080E-08 Warning: Further gmin increment
Trying gmin =   4.4072E-08 Note: One successful gmin step
Trying gmin =   4.3573E-08 Note: One successful gmin step
Trying gmin =   4.2836E-08 Warning: Further gmin increment
Trying gmin =   4.3388E-08 Warning: Further gmin increment
Trying gmin =   4.3527E-08 Warning: Further gmin increment
Trying gmin =   4.3562E-08 Warning: Further gmin increment
Trying gmin =   4.3570E-08 Note: One successful gmin step
Trying gmin =   4.3566E-08 Warning: Further gmin increment
Trying gmin =   4.3569E-08 Note: One successful gmin step
Trying gmin =   4.3568E-08 Note: One successful gmin step
Trying gmin =   4.3565E-08 Warning: Further gmin increment
Trying gmin =   4.3567E-08 Warning: Last gmin step failed
Warning: True gmin stepping failed
Note: Starting dynamic gmin stepping
Trying gmin =   1.0000E-03 Note: One successful gmin step
Trying gmin =   1.0000E-04 Note: One successful gmin step
Trying gmin =   1.0000E-05 Note: One successful gmin step
Trying gmin =   1.0000E-06 Warning: Further gmin increment
Trying gmin =   5.6234E-06 Note: One successful gmin step
Trying gmin =   3.1623E-06 Note: One successful gmin step
Trying gmin =   1.3335E-06 Note: One successful gmin step
Trying gmin =   3.6517E-07 Warning: Further gmin increment
Trying gmin =   9.6466E-07 Warning: Further gmin increment
Trying gmin =   1.2298E-06 Warning: Further gmin increment
Trying gmin =   1.3068E-06 Note: One successful gmin step
Trying gmin =   1.2677E-06 Note: One successful gmin step
Trying gmin =   1.2113E-06 Note: One successful gmin step
Trying gmin =   1.1313E-06 Note: One successful gmin step
Trying gmin =   1.0212E-06 Note: One successful gmin step
Trying gmin =   8.7569E-07 Note: One successful gmin step
Trying gmin =   6.9541E-07 Note: One successful gmin step
Trying gmin =   4.9212E-07 Note: One successful gmin step
Trying gmin =   2.9297E-07 Note: One successful gmin step
Trying gmin =   1.3457E-07 Note: One successful gmin step
Trying gmin =   4.1890E-08 Note: One successful gmin step
Trying gmin =   7.2758E-09 Note: One successful gmin step
Trying gmin =   7.2758E-10 Note: One successful gmin step
Trying gmin =   7.2758E-11 Note: One successful gmin step
Trying gmin =   7.2758E-12 Note: One successful gmin step
Trying gmin =   1.0000E-12 Note: One successful gmin step
Note: Dynamic gmin stepping completed
 Reference value :  2.80000e+00Note: Starting true gmin stepping
Trying gmin =   1.0000E-03 Note: One successful gmin step
Trying gmin =   1.0000E-04 Note: One successful gmin step
Trying gmin =   1.0000E-05 Note: One successful gmin step
Trying gmin =   1.0000E-06 Note: One successful gmin step
Trying gmin =   1.0000E-07 Note: One successful gmin step
Trying gmin =   1.0000E-08 Note: One successful gmin step
Trying gmin =   3.1623E-09 Note: One successful gmin step
Trying gmin =   5.6234E-10 Note: One successful gmin step
Trying gmin =   5.6234E-11 Note: One successful gmin step
Trying gmin =   5.6234E-12 Note: One successful gmin step
Trying gmin =   1.0000E-12 Note: One successful gmin step
Note: True gmin stepping completed
 Reference value :  1.54000e+00Note: Starting true gmin stepping
Trying gmin =   1.0000E-03 Note: One successful gmin step
Trying gmin =   1.0000E-04 Note: One successful gmin step
Trying gmin =   1.0000E-05 Note: One successful gmin step
Trying gmin =   1.0000E-06 Note: One successful gmin step
Trying gmin =   1.0000E-07 Note: One successful gmin step
Trying gmin =   1.0000E-08 Warning: Further gmin increment
Trying gmin =   5.6234E-08 Note: One successful gmin step
Trying gmin =   2.3714E-08 Warning: Further gmin increment
Trying gmin =   4.5316E-08 Note: One successful gmin step
Trying gmin =   3.2781E-08 Note: One successful gmin step
Trying gmin =   2.0169E-08 Warning: Further gmin increment
Trying gmin =   2.9033E-08 Warning: Further gmin increment
Trying gmin =   3.1801E-08 Note: One successful gmin step
Trying gmin =   3.0385E-08 Note: One successful gmin step
Trying gmin =   2.8379E-08 Note: One successful gmin step
Trying gmin =   2.5616E-08 Note: One successful gmin step
Trying gmin =   2.1967E-08 Note: One successful gmin step
Trying gmin =   1.7444E-08 Note: One successful gmin step
Trying gmin =   1.2345E-08 Note: One successful gmin step
Trying gmin =   7.3490E-09 Note: One successful gmin step
Trying gmin =   3.3756E-09 Note: One successful gmin step
Trying gmin =   1.0508E-09 Note: One successful gmin step
Trying gmin =   1.8251E-10 Note: One successful gmin step
Trying gmin =   1.8251E-11 Note: One successful gmin step
Trying gmin =   1.8251E-12 Note: One successful gmin step
Trying gmin =   1.0000E-12 Note: One successful gmin step
Note: True gmin stepping completed
 Reference value :  1.52000e+00Note: Starting true gmin stepping
Trying gmin =   1.0000E-03 Note: One successful gmin step
Trying gmin =   1.0000E-04 Note: One successful gmin step
Trying gmin =   1.0000E-05 Note: One successful gmin step
Trying gmin =   1.0000E-06 Note: One successful gmin step
Trying gmin =   1.0000E-07 Note: One successful gmin step
Trying gmin =   1.0000E-08 Warning: Further gmin increment
Trying gmin =   5.6234E-08 Note: One successful gmin step
Trying gmin =   2.3714E-08 Warning: Further gmin increment
Trying gmin =   4.5316E-08 Note: One successful gmin step
Trying gmin =   3.2781E-08 Note: One successful gmin step
Trying gmin =   2.0169E-08 Warning: Further gmin increment
Trying gmin =   2.9033E-08 Note: One successful gmin step
Trying gmin =   2.4199E-08 Warning: Further gmin increment
Trying gmin =   2.7741E-08 Note: One successful gmin step
Trying gmin =   2.5909E-08 Note: One successful gmin step
Trying gmin =   2.3386E-08 Note: One successful gmin step
Trying gmin =   2.0055E-08 Note: One successful gmin step
Trying gmin =   1.5926E-08 Note: One successful gmin step
Trying gmin =   1.1270E-08 Note: One successful gmin step
Trying gmin =   6.7093E-09 Note: One successful gmin step
Trying gmin =   3.0818E-09 Note: One successful gmin step
Trying gmin =   9.5935E-10 Note: One successful gmin step
Trying gmin =   1.6663E-10 Note: One successful gmin step
Trying gmin =   1.6663E-11 Note: One successful gmin step
Trying gmin =   1.6663E-12 Note: One successful gmin step
Trying gmin =   1.0000E-12 Note: One successful gmin step
Note: True gmin stepping completed
 Reference value :  1.50000e+00Note: Starting true gmin stepping
Trying gmin =   1.0000E-03 Note: One successful gmin step
Trying gmin =   1.0000E-04 Note: One successful gmin step
Trying gmin =   1.0000E-05 Note: One successful gmin step
Trying gmin =   1.0000E-06 Note: One successful gmin step
Trying gmin =   1.0000E-07 Note: One successful gmin step
Trying gmin =   1.0000E-08 Note: One successful gmin step
Trying gmin =   1.0000E-09 Warning: Further gmin increment
Trying gmin =   5.6234E-09 Note: One successful gmin step
Trying gmin =   2.3714E-09 Note: One successful gmin step
Trying gmin =   6.4938E-10 Warning: Further gmin increment
Trying gmin =   1.7154E-09 Note: One successful gmin step
Trying gmin =   1.0554E-09 Note: One successful gmin step
Trying gmin =   8.2788E-10 Note: One successful gmin step
Trying gmin =   5.7513E-10 Note: One successful gmin step
Trying gmin =   3.3301E-10 Note: One successful gmin step
Trying gmin =   1.4672E-10 Note: One successful gmin step
Trying gmin =   4.2911E-11 Note: One successful gmin step
Trying gmin =   6.7868E-12 Note: One successful gmin step
Trying gmin =   1.0000E-12 Note: One successful gmin step
Note: True gmin stepping completed
 Reference value :  1.20000e+00Note: Starting true gmin stepping
Trying gmin =   1.0000E-03 Note: One successful gmin step
Trying gmin =   1.0000E-04 Note: One successful gmin step
Trying gmin =   1.0000E-05 Note: One successful gmin step
Trying gmin =   1.0000E-06 Note: One successful gmin step
Trying gmin =   1.0000E-07 Note: One successful gmin step
Trying gmin =   1.0000E-08 Note: One successful gmin step
Trying gmin =   1.0000E-09 Note: One successful gmin step
Trying gmin =   1.0000E-10 Note: One successful gmin step
Trying gmin =   1.0000E-11 Note: One successful gmin step
Trying gmin =   1.0000E-12 Warning: Further gmin increment
Trying gmin =   5.6234E-12 Note: One successful gmin step
Trying gmin =   2.3714E-12 Note: One successful gmin step
Trying gmin =   1.0000E-12 Warning: Further gmin increment
Trying gmin =   1.9110E-12 Note: One successful gmin step
Trying gmin =   1.3824E-12 Note: One successful gmin step
Trying gmin =   1.0000E-12 Warning: Further gmin increment
Trying gmin =   1.2749E-12 Note: One successful gmin step
Trying gmin =   1.1291E-12 Note: One successful gmin step
Trying gmin =   1.0000E-12 Note: One successful gmin step
Warning: True gmin stepping failed
Note: Starting dynamic gmin stepping
Trying gmin =   1.0000E-03 Note: One successful gmin step
Trying gmin =   1.0000E-04 Note: One successful gmin step
Trying gmin =   1.0000E-05 Note: One successful gmin step
Trying gmin =   1.0000E-06 Note: One successful gmin step
Trying gmin =   1.0000E-07 Note: One successful gmin step
Trying gmin =   1.0000E-08 Note: One successful gmin step
Trying gmin =   1.0000E-09 Note: One successful gmin step
Trying gmin =   1.0000E-10 Note: One successful gmin step
Trying gmin =   1.0000E-11 Note: One successful gmin step
Trying gmin =   1.0000E-12 Note: One successful gmin step
Trying gmin =   1.0000E-12 Note: One successful gmin step
Note: Dynamic gmin stepping completed
 Reference value :  4.00000e-02
Error: measure  pm  (AT) : out of interval
 meas ac pm find p when vdb(ldo_out)=0 failed!

Doing analysis at TEMP = 0.000000 and TNOM = 27.000000


No. of Data Rows : 91
psrr100             =  -3.137302e+01
psrr100k            =  -6.436480e+00
Doing analysis at TEMP = 0.000000 and TNOM = 27.000000


No. of Data Rows : 86
temp_coeff = 3.828803e+01
Doing analysis at TEMP = 0.000000 and TNOM = 27.000000


No. of Data Rows : 141
vldo_sup_2          =  1.805227e+00
vldo_sup_2_8        =  1.804398e+00
line_reg = 1.036250e-03
Note: No ".plot", ".print", or ".fourier" lines; no simulations run
vin                 =  1.785471e+00
dropout = 2.147100e-02
