Note: Starting true gmin stepping
Trying gmin =   1.0000E-03 Note: One successful gmin step
Trying gmin =   1.0000E-04 Note: One successful gmin step
Trying gmin =   1.0000E-05 Note: One successful gmin step
Trying gmin =   1.0000E-06 Note: One successful gmin step
Trying gmin =   1.0000E-07 Note: One successful gmin step
Trying gmin =   3.1623E-08 Warning: Further gmin increment
Trying gmin =   7.4989E-08 Note: One successful gmin step
Trying gmin =   4.8697E-08 Warning: Further gmin increment
Trying gmin =   6.7317E-08 Note: One successful gmin step
Trying gmin =   5.7255E-08 Warning: Further gmin increment
Trying gmin =   6.4647E-08 Note: One successful gmin step
Trying gmin =   6.0839E-08 Warning: Further gmin increment
Trying gmin =   6.3673E-08 Note: One successful gmin step
Trying gmin =   6.2240E-08 Note: One successful gmin step
Trying gmin =   6.0150E-08 Warning: Further gmin increment
Trying gmin =   6.1711E-08 Note: One successful gmin step
Trying gmin =   6.0925E-08 Note: One successful gmin step
Trying gmin =   5.9766E-08 Warning: Further gmin increment
Trying gmin =   6.0633E-08 Warning: Further gmin increment
Trying gmin =   6.0852E-08 Warning: Further gmin increment
Trying gmin =   6.0907E-08 Note: One successful gmin step
Trying gmin =   6.0880E-08 Note: One successful gmin step
Trying gmin =   6.0838E-08 Warning: Further gmin increment
Trying gmin =   6.0869E-08 Note: One successful gmin step
Trying gmin =   6.0854E-08 Warning: Further gmin increment
Trying gmin =   6.0865E-08 Note: One successful gmin step
Trying gmin =   6.0860E-08 Note: One successful gmin step
Trying gmin =   6.0851E-08 Warning: Further gmin increment
Trying gmin =   6.0858E-08 Note: One successful gmin step
Trying gmin =   6.0854E-08 Warning: Further gmin increment
Trying gmin =   6.0857E-08 Note: One successful gmin step
Trying gmin =   6.0855E-08 Warning: Last gmin step failed
Note: True gmin stepping completed
 Reference value :  0.00000e+00
No compatibility mode selected!


Circuit: * ldo netlist 

Doing analysis at TEMP = 0.000000 and TNOM = 27.000000


No. of Data Rows : 1
bg_out = 1.193193e+00
inn = 1.261208e+00
inp = 1.261178e+00
l1#branch = 6.938894e-18
ldo_out = 1.794613e+00
m.xm1.msky130_fd_pr__nfet_g5v0d10v5#body = 1.729754e-11
m.xm1.msky130_fd_pr__nfet_g5v0d10v5#dbody = 3.713857e-11
m.xm1.msky130_fd_pr__nfet_g5v0d10v5#sbody = 1.475405e-11
m.xm2.msky130_fd_pr__pfet_g5v0d10v5#body = 2.300000e+00
m.xm2.msky130_fd_pr__pfet_g5v0d10v5#dbody = 2.300000e+00
m.xm2.msky130_fd_pr__pfet_g5v0d10v5#sbody = 2.300000e+00
m.xm3.msky130_fd_pr__pfet_g5v0d10v5#body = 2.300000e+00
m.xm3.msky130_fd_pr__pfet_g5v0d10v5#dbody = 2.300000e+00
m.xm3.msky130_fd_pr__pfet_g5v0d10v5#sbody = 2.300000e+00
m.xm4.msky130_fd_pr__pfet_g5v0d10v5#body = 2.300000e+00
m.xm4.msky130_fd_pr__pfet_g5v0d10v5#dbody = 2.300000e+00
m.xm4.msky130_fd_pr__pfet_g5v0d10v5#sbody = 2.300000e+00
m.xm5.msky130_fd_pr__pfet_g5v0d10v5#body = 2.300000e+00
m.xm5.msky130_fd_pr__pfet_g5v0d10v5#dbody = 2.300000e+00
m.xm5.msky130_fd_pr__pfet_g5v0d10v5#sbody = 2.300000e+00
m.xm6.msky130_fd_pr__nfet_g5v0d10v5#body = 1.264722e-11
m.xm6.msky130_fd_pr__nfet_g5v0d10v5#dbody = 3.161803e-11
m.xm6.msky130_fd_pr__nfet_g5v0d10v5#sbody = 6.323612e-12
m.xm7.msky130_fd_pr__pfet_g5v0d10v5#body = 2.300000e+00
m.xm7.msky130_fd_pr__pfet_g5v0d10v5#dbody = 2.300000e+00
m.xm7.msky130_fd_pr__pfet_g5v0d10v5#sbody = 2.300000e+00
m.xm8.msky130_fd_pr__pfet_g5v0d10v5#body = 2.300000e+00
m.xm8.msky130_fd_pr__pfet_g5v0d10v5#dbody = 2.300000e+00
m.xm8.msky130_fd_pr__pfet_g5v0d10v5#sbody = 2.300000e+00
m.xm9.msky130_fd_pr__nfet_g5v0d10v5#body = 1.763040e-11
m.xm9.msky130_fd_pr__nfet_g5v0d10v5#dbody = 3.952571e-11
m.xm9.msky130_fd_pr__nfet_g5v0d10v5#sbody = 1.336549e-11
m.xm10.msky130_fd_pr__nfet_g5v0d10v5#body = 1.746723e-11
m.xm10.msky130_fd_pr__nfet_g5v0d10v5#dbody = 3.911778e-11
m.xm10.msky130_fd_pr__nfet_g5v0d10v5#sbody = 1.328391e-11
m.xm11.msky130_fd_pr__pfet_g5v0d10v5#body = 2.300000e+00
m.xm11.msky130_fd_pr__pfet_g5v0d10v5#dbody = 2.300000e+00
m.xm11.msky130_fd_pr__pfet_g5v0d10v5#sbody = 2.300000e+00
m.xm12.msky130_fd_pr__pfet_g5v0d10v5#body = 2.300000e+00
m.xm12.msky130_fd_pr__pfet_g5v0d10v5#dbody = 2.300000e+00
m.xm12.msky130_fd_pr__pfet_g5v0d10v5#sbody = 2.300000e+00
m.xm13.msky130_fd_pr__nfet_g5v0d10v5#body = 2.275127e-12
m.xm13.msky130_fd_pr__nfet_g5v0d10v5#dbody = 5.687809e-12
m.xm13.msky130_fd_pr__nfet_g5v0d10v5#sbody = 1.137573e-12
m.xm14.msky130_fd_pr__pfet_g5v0d10v5#body = 2.300000e+00
m.xm14.msky130_fd_pr__pfet_g5v0d10v5#dbody = 2.300000e+00
m.xm14.msky130_fd_pr__pfet_g5v0d10v5#sbody = 2.300000e+00
m.xm15.msky130_fd_pr__nfet_g5v0d10v5#body = 4.428623e-16
m.xm15.msky130_fd_pr__nfet_g5v0d10v5#dbody = 1.107138e-15
m.xm15.msky130_fd_pr__nfet_g5v0d10v5#sbody = 2.214492e-16
m.xm16.msky130_fd_pr__nfet_g5v0d10v5#body = 4.451521e-11
m.xm16.msky130_fd_pr__nfet_g5v0d10v5#dbody = 7.975773e-11
m.xm16.msky130_fd_pr__nfet_g5v0d10v5#sbody = 5.378792e-11
m.xm17.msky130_fd_pr__pfet_g5v0d10v5#body = 2.300000e+00
m.xm17.msky130_fd_pr__pfet_g5v0d10v5#dbody = 2.300000e+00
m.xm17.msky130_fd_pr__pfet_g5v0d10v5#sbody = 2.300000e+00
m.xm18.msky130_fd_pr__nfet_g5v0d10v5#body = 1.153279e-11
m.xm18.msky130_fd_pr__nfet_g5v0d10v5#dbody = 2.883197e-11
m.xm18.msky130_fd_pr__nfet_g5v0d10v5#sbody = 5.766408e-12
m.xm19.msky130_fd_pr__nfet_g5v0d10v5#body = 1.734750e-11
m.xm19.msky130_fd_pr__nfet_g5v0d10v5#dbody = 3.726347e-11
m.xm19.msky130_fd_pr__nfet_g5v0d10v5#sbody = 1.477903e-11
m.xm20.msky130_fd_pr__nfet_g5v0d10v5#body = 1.327468e-11
m.xm20.msky130_fd_pr__nfet_g5v0d10v5#dbody = 3.318668e-11
m.xm20.msky130_fd_pr__nfet_g5v0d10v5#sbody = 6.637350e-12
m.xm22.msky130_fd_pr__nfet_g5v0d10v5#body = 3.052676e-12
m.xm22.msky130_fd_pr__nfet_g5v0d10v5#dbody = 7.631686e-12
m.xm22.msky130_fd_pr__nfet_g5v0d10v5#sbody = 1.526342e-12
m.xm24.msky130_fd_pr__pfet_g5v0d10v5#body = 2.300000e+00
m.xm24.msky130_fd_pr__pfet_g5v0d10v5#dbody = 2.300000e+00
m.xm24.msky130_fd_pr__pfet_g5v0d10v5#sbody = 2.300000e+00
m.xm26.msky130_fd_pr__pfet_g5v0d10v5#body = 2.300000e+00
m.xm26.msky130Note: Starting true gmin stepping
Trying gmin =   1.0000E-03 Note: One successful gmin step
Trying gmin =   1.0000E-04 Note: One successful gmin step
Trying gmin =   1.0000E-05 Note: One successful gmin step
Trying gmin =   1.0000E-06 Note: One successful gmin step
Trying gmin =   1.0000E-07 Note: One successful gmin step
Trying gmin =   3.1623E-08 Warning: Further gmin increment
Trying gmin =   7.4989E-08 Note: One successful gmin step
Trying gmin =   4.8697E-08 Warning: Further gmin increment
Trying gmin =   6.7317E-08 Note: One successful gmin step
Trying gmin =   5.7255E-08 Warning: Further gmin increment
Trying gmin =   6.4647E-08 Note: One successful gmin step
Trying gmin =   6.0839E-08 Warning: Further gmin increment
Trying gmin =   6.3673E-08 Note: One successful gmin step
Trying gmin =   6.2240E-08 Note: One successful gmin step
Trying gmin =   6.0150E-08 Warning: Further gmin increment
Trying gmin =   6.1711E-08 Note: One successful gmin step
Trying gmin =   6.0925E-08 Note: One successful gmin step
Trying gmin =   5.9766E-08 Warning: Further gmin increment
Trying gmin =   6.0633E-08 Warning: Further gmin increment
Trying gmin =   6.0852E-08 Warning: Further gmin increment
Trying gmin =   6.0907E-08 Note: One successful gmin step
Trying gmin =   6.0880E-08 Note: One successful gmin step
Trying gmin =   6.0838E-08 Warning: Further gmin increment
Trying gmin =   6.0869E-08 Note: One successful gmin step
Trying gmin =   6.0854E-08 Warning: Further gmin increment
Trying gmin =   6.0865E-08 Note: One successful gmin step
Trying gmin =   6.0860E-08 Note: One successful gmin step
Trying gmin =   6.0851E-08 Warning: Further gmin increment
Trying gmin =   6.0858E-08 Note: One successful gmin step
Trying gmin =   6.0854E-08 Warning: Further gmin increment
Trying gmin =   6.0857E-08 Note: One successful gmin step
Trying gmin =   6.0855E-08 Warning: Last gmin step failed
Note: True gmin stepping completed
 Reference value :  1.00000e+00_fd_pr__pfet_g5v0d10v5#dbody = 2.300000e+00
m.xm26.msky130_fd_pr__pfet_g5v0d10v5#sbody = 2.300000e+00
mir = 1.139587e+00
net1 = 7.700098e-01
net2 = 3.540680e-05
net3 = 8.236455e-01
net4 = 2.442064e-01
net5 = 1.143584e+00
net6 = 1.011769e+00
net7 = 8.236151e-01
net8 = 1.215363e+00
net9 = 1.228417e+00
net10 = 1.820084e-01
net11 = 9.226216e-01
net12 = 9.226216e-01
net13 = 0.000000e+00
out = 9.226216e-01
pos = 1.193310e+00
q.xq2.qsky130_fd_pr__pnp_05v5_w0p68l0p68#collcx = 1.854587e-03
q.xq3.qsky130_fd_pr__pnp_05v5_w0p68l0p68#collcx = 2.334130e-04
q.xq4.qsky130_fd_pr__pnp_05v5_w0p68l0p68#collcx = 2.334130e-04
q.xq8.qsky130_fd_pr__pnp_05v5_w0p68l0p68#collcx = 2.334130e-04
q.xq10.qsky130_fd_pr__pnp_05v5_w0p68l0p68#collcx = 2.334130e-04
q.xq12.qsky130_fd_pr__pnp_05v5_w0p68l0p68#collcx = 2.334130e-04
q.xq14.qsky130_fd_pr__pnp_05v5_w0p68l0p68#collcx = 2.334130e-04
q.xq16.qsky130_fd_pr__pnp_05v5_w0p68l0p68#collcx = 2.334130e-04
q.xq18.qsky130_fd_pr__pnp_05v5_w0p68l0p68#collcx = 2.334130e-04
vb = 1.061972e+00
vdd = 2.300000e+00
vs#branch = -9.98202e-02
vt#branch = 0.000000e+00
xc1.a = 0.000000e+00
xc1.b1 = 0.000000e+00
xc3.a = 9.226216e-01
xc3.b1 = 9.226216e-01
xr1.xsky130_fd_pr__res_xhigh_po_0p69.ra = 8.287142e-01
xr2.xsky130_fd_pr__res_xhigh_po_0p69.ra = 8.287445e-01
xr3.xsky130_fd_pr__res_xhigh_po_0p69.ra = 3.639939e-03
xr4.xsky130_fd_pr__res_xhigh_po_0p69.ra = 7.715547e-01
xr5.xsky130_fd_pr__res_xhigh_po_0p69.ra = 3.639796e-03
xr6.xsky130_fd_pr__res_xhigh_po_0p69.ra = 5.431418e-03
xr7.xsky130_fd_pr__res_xhigh_po_0p69.ra = 9.226216e-01
xr8.xsky130_fd_pr__res_xhigh_po_0p69.ra = 1.202344e+00
xr9.xsky130_fd_pr__res_xhigh_po_0p69.ra = 9.473654e-03
Doing analysis at TEMP = 0.000000 and TNOM = 27.000000


No. of Data Rows : 91
Note: Starting true gmin stepping
Trying gmin =   1.0000E-03 Note: One successful gmin step
Trying gmin =   1.0000E-04 Note: One successful gmin step
Trying gmin =   1.0000E-05 Note: One successful gmin step
Trying gmin =   1.0000E-06 Note: One successful gmin step
Trying gmin =   1.0000E-07 Note: One successful gmin step
Trying gmin =   3.1623E-08 Warning: Further gmin increment
Trying gmin =   7.4989E-08 Note: One successful gmin step
Trying gmin =   4.8697E-08 Warning: Further gmin increment
Trying gmin =   6.7317E-08 Note: One successful gmin step
Trying gmin =   5.7255E-08 Warning: Further gmin increment
Trying gmin =   6.4647E-08 Note: One successful gmin step
Trying gmin =   6.0839E-08 Warning: Further gmin increment
Trying gmin =   6.3673E-08 Note: One successful gmin step
Trying gmin =   6.2240E-08 Note: One successful gmin step
Trying gmin =   6.0150E-08 Warning: Further gmin increment
Trying gmin =   6.1711E-08 Note: One successful gmin step
Trying gmin =   6.0925E-08 Note: One successful gmin step
Trying gmin =   5.9766E-08 Warning: Further gmin increment
Trying gmin =   6.0633E-08 Warning: Further gmin increment
Trying gmin =   6.0852E-08 Warning: Further gmin increment
Trying gmin =   6.0907E-08 Note: One successful gmin step
Trying gmin =   6.0880E-08 Note: One successful gmin step
Trying gmin =   6.0838E-08 Warning: Further gmin increment
Trying gmin =   6.0869E-08 Note: One successful gmin step
Trying gmin =   6.0854E-08 Warning: Further gmin increment
Trying gmin =   6.0865E-08 Note: One successful gmin step
Trying gmin =   6.0860E-08 Note: One successful gmin step
Trying gmin =   6.0851E-08 Warning: Further gmin increment
Trying gmin =   6.0858E-08 Note: One successful gmin step
Trying gmin =   6.0854E-08 Warning: Further gmin increment
Trying gmin =   6.0857E-08 Note: One successful gmin step
Trying gmin =   6.0855E-08 Warning: Last gmin step failed
Note: True gmin stepping completed
 Reference value :  1.00000e+00Note: Starting true gmin stepping
Trying gmin =   1.0000E-03 Note: One successful gmin step
Trying gmin =   1.0000E-04 Note: One successful gmin step
Trying gmin =   1.0000E-05 Note: One successful gmin step
Trying gmin =   1.0000E-06 Warning: Further gmin increment
Trying gmin =   5.6234E-06 Note: One successful gmin step
Trying gmin =   2.3714E-06 Note: One successful gmin step
Trying gmin =   6.4938E-07 Warning: Further gmin increment
Trying gmin =   1.7154E-06 Note: One successful gmin step
Trying gmin =   1.0554E-06 Note: One successful gmin step
Trying gmin =   5.0937E-07 Note: One successful gmin step
Trying gmin =   1.7077E-07 Warning: Further gmin increment
Trying gmin =   3.8760E-07 Note: One successful gmin step
Trying gmin =   2.5728E-07 Note: One successful gmin step
Trying gmin =   1.3913E-07 Note: One successful gmin step
Trying gmin =   5.5333E-08 Warning: Further gmin increment
Trying gmin =   1.1049E-07 Warning: Further gmin increment
Trying gmin =   1.3134E-07 Note: One successful gmin step
Trying gmin =   1.2047E-07 Note: One successful gmin step
Trying gmin =   1.0582E-07 Warning: Further gmin increment
Trying gmin =   1.1662E-07 Error: -3.41262e+181, 2 out of range for ^
Warning: Further gmin increment
Trying gmin =   1.1949E-07 Note: One successful gmin step
Trying gmin =   1.1805E-07 Note: One successful gmin step
Trying gmin =   1.1592E-07 Note: One successful gmin step
Trying gmin =   1.1382E-07 Note: One successful gmin step
Trying gmin =   1.1075E-07 Note: One successful gmin step
Trying gmin =   1.0630E-07 Note: One successful gmin step
Trying gmin =   9.9954E-08 Note: One successful gmin step
Trying gmin =   9.1140E-08 Note: One successful gmin step
Trying gmin =   7.9355E-08 Note: One successful gmin step
Trying gmin =   6.4472E-08 Note: One successful gmin step
Trying gmin =   4.7214E-08 Note: One successful gmin step
Trying gmin =   2.9588E-08 Note: One successful gmin step
Trying gmin =   1.4678E-08 Note: One successful gmin step
Trying gmin =   5.1288E-09 Note: One successful gmin step
Trying gmin =   1.0593E-09 Note: One successful gmin step
Trying gmin =   1.0593E-10 Note: One successful gmin step
Trying gmin =   1.0593E-11 Note: One successful gmin step
Trying gmin =   1.0593E-12 Note: One successful gmin step
Trying gmin =   1.0000E-12 Note: One successful gmin step
Note: True gmin stepping completed
 Reference value :  2.80000e+00Note: Starting true gmin stepping
Trying gmin =   1.0000E-03 Note: One successful gmin step
Trying gmin =   1.0000E-04 Note: One successful gmin step
Trying gmin =   1.0000E-05 Note: One successful gmin step
Trying gmin =   1.0000E-06 Note: One successful gmin step
Trying gmin =   1.0000E-07 Note: One successful gmin step
Trying gmin =   1.0000E-08 Warning: Further gmin increment
Trying gmin =   5.6234E-08 Note: One successful gmin step
Trying gmin =   2.3714E-08 Note: One successful gmin step
Trying gmin =   6.4938E-09 Note: One successful gmin step
Trying gmin =   9.3057E-10 Note: One successful gmin step
Trying gmin =   9.3057E-11 Note: One successful gmin step
Trying gmin =   9.3057E-12 Note: One successful gmin step
Trying gmin =   2.9427E-12 Note: One successful gmin step
Trying gmin =   1.0000E-12 Note: One successful gmin step
Note: True gmin stepping completed
Note: Starting true gmin stepping
Trying gmin =   1.0000E-03 Note: One successful gmin step
Trying gmin =   1.0000E-04 Note: One successful gmin step
Trying gmin =   1.0000E-05 Note: One successful gmin step
Trying gmin =   1.0000E-06 Note: One successful gmin step
Trying gmin =   1.0000E-07 Note: One successful gmin step
Trying gmin =   1.0000E-08 Warning: Further gmin increment
Trying gmin =   5.6234E-08 Note: One successful gmin step
Trying gmin =   2.3714E-08 Note: One successful gmin step
Trying gmin =   6.4938E-09 Note: One successful gmin step
Trying gmin =   9.3057E-10 Note: One successful gmin step
Trying gmin =   9.3057E-11 Note: One successful gmin step
Trying gmin =   9.3057E-12 Warning: Further gmin increment
Trying gmin =   5.2330E-11 Note: One successful gmin step
Trying gmin =   2.2067E-11 Warning: Further gmin increment
Trying gmin =   4.2170E-11 Note: One successful gmin step
Trying gmin =   3.0505E-11 Note: One successful gmin step
Trying gmin =   1.8769E-11 Note: One successful gmin step
Trying gmin =   9.0580E-12 Note: One successful gmin step
Trying gmin =   3.0368E-12 Warning: Further gmin increment
Trying gmin =   6.8925E-12 Note: One successful gmin step
Trying gmin =   4.5751E-12 Note: One successful gmin step
Trying gmin =   2.4742E-12 Note: One successful gmin step
Trying gmin =   1.8195E-12 Note: One successful gmin step
Trying gmin =   1.1474E-12 Note: One successful gmin step
Trying gmin =   1.0000E-12 Note: One successful gmin step
Note: True gmin stepping completed
 Reference value :  1.20000e+00pm                  =  4.635734e+01
Doing analysis at TEMP = 0.000000 and TNOM = 27.000000


No. of Data Rows : 91
psrr100             =  -5.769846e+01
psrr100k            =  -2.572293e+01
Doing analysis at TEMP = 0.000000 and TNOM = 27.000000


No. of Data Rows : 86
temp_coeff = 1.264182e+02
Doing analysis at TEMP = 0.000000 and TNOM = 27.000000


No. of Data Rows : 141
vldo_sup_2          =  1.795103e+00
vldo_sup_2_8        =  1.794174e+00
line_reg = 1.161250e-03
Note: No ".plot", ".print", or ".fourier" lines; no simulations run
vin                 =  1.894200e+00
dropout = 1.302000e-01
