 Reference value :  0.00000e+00
No compatibility mode selected!


Circuit: * ldo netlist 

Doing analysis at TEMP = 85.000000 and TNOM = 27.000000


No. of Data Rows : 1
bg_out = 1.102459e+00
inn = 1.064774e+00
inp = 1.064723e+00
l1#branch = 0.000000e+00
ldo_out = 1.812576e+00
m.xm1.msky130_fd_pr__nfet_g5v0d10v5#body = 2.682537e-11
m.xm1.msky130_fd_pr__nfet_g5v0d10v5#dbody = 4.991738e-11
m.xm1.msky130_fd_pr__nfet_g5v0d10v5#sbody = 3.055872e-11
m.xm2.msky130_fd_pr__pfet_g5v0d10v5#body = 2.300000e+00
m.xm2.msky130_fd_pr__pfet_g5v0d10v5#dbody = 2.300000e+00
m.xm2.msky130_fd_pr__pfet_g5v0d10v5#sbody = 2.300000e+00
m.xm3.msky130_fd_pr__pfet_g5v0d10v5#body = 2.300000e+00
m.xm3.msky130_fd_pr__pfet_g5v0d10v5#dbody = 2.300000e+00
m.xm3.msky130_fd_pr__pfet_g5v0d10v5#sbody = 2.300000e+00
m.xm4.msky130_fd_pr__pfet_g5v0d10v5#body = 2.300000e+00
m.xm4.msky130_fd_pr__pfet_g5v0d10v5#dbody = 2.300000e+00
m.xm4.msky130_fd_pr__pfet_g5v0d10v5#sbody = 2.300000e+00
m.xm5.msky130_fd_pr__pfet_g5v0d10v5#body = 2.300000e+00
m.xm5.msky130_fd_pr__pfet_g5v0d10v5#dbody = 2.300000e+00
m.xm5.msky130_fd_pr__pfet_g5v0d10v5#sbody = 2.300000e+00
m.xm6.msky130_fd_pr__nfet_g5v0d10v5#body = 1.919638e-11
m.xm6.msky130_fd_pr__nfet_g5v0d10v5#dbody = 4.799084e-11
m.xm6.msky130_fd_pr__nfet_g5v0d10v5#sbody = 9.598312e-12
m.xm7.msky130_fd_pr__pfet_g5v0d10v5#body = 2.300000e+00
m.xm7.msky130_fd_pr__pfet_g5v0d10v5#dbody = 2.300000e+00
m.xm7.msky130_fd_pr__pfet_g5v0d10v5#sbody = 2.300000e+00
m.xm8.msky130_fd_pr__pfet_g5v0d10v5#body = 2.300000e+00
m.xm8.msky130_fd_pr__pfet_g5v0d10v5#dbody = 2.300000e+00
m.xm8.msky130_fd_pr__pfet_g5v0d10v5#sbody = 2.300000e+00
m.xm9.msky130_fd_pr__nfet_g5v0d10v5#body = 2.502030e-11
m.xm9.msky130_fd_pr__nfet_g5v0d10v5#dbody = 4.835793e-11
m.xm9.msky130_fd_pr__nfet_g5v0d10v5#sbody = 2.670298e-11
m.xm10.msky130_fd_pr__nfet_g5v0d10v5#body = 2.493075e-11
m.xm10.msky130_fd_pr__nfet_g5v0d10v5#dbody = 4.813406e-11
m.xm10.msky130_fd_pr__nfet_g5v0d10v5#sbody = 2.665820e-11
m.xm11.msky130_fd_pr__pfet_g5v0d10v5#body = 2.300000e+00
m.xm11.msky130_fd_pr__pfet_g5v0d10v5#dbody = 2.300000e+00
m.xm11.msky130_fd_pr__pfet_g5v0d10v5#sbody = 2.300000e+00
m.xm12.msky130_fd_pr__pfet_g5v0d10v5#body = 2.300000e+00
m.xm12.msky130_fd_pr__pfet_g5v0d10v5#dbody = 2.300000e+00
m.xm12.msky130_fd_pr__pfet_g5v0d10v5#sbody = 2.300000e+00
m.xm13.msky130_fd_pr__nfet_g5v0d10v5#body = 5.449025e-12
m.xm13.msky130_fd_pr__nfet_g5v0d10v5#dbody = 1.362249e-11
m.xm13.msky130_fd_pr__nfet_g5v0d10v5#sbody = 2.724584e-12
m.xm14.msky130_fd_pr__pfet_g5v0d10v5#body = 2.300000e+00
m.xm14.msky130_fd_pr__pfet_g5v0d10v5#dbody = 2.300000e+00
m.xm14.msky130_fd_pr__pfet_g5v0d10v5#sbody = 2.300000e+00
m.xm15.msky130_fd_pr__nfet_g5v0d10v5#body = 9.969505e-15
m.xm15.msky130_fd_pr__nfet_g5v0d10v5#dbody = 2.492306e-14
m.xm15.msky130_fd_pr__nfet_g5v0d10v5#sbody = 4.985458e-15
m.xm16.msky130_fd_pr__nfet_g5v0d10v5#body = 5.254005e-11
m.xm16.msky130_fd_pr__nfet_g5v0d10v5#dbody = 9.425040e-11
m.xm16.msky130_fd_pr__nfet_g5v0d10v5#sbody = 6.336976e-11
m.xm17.msky130_fd_pr__pfet_g5v0d10v5#body = 2.300000e+00
m.xm17.msky130_fd_pr__pfet_g5v0d10v5#dbody = 2.300000e+00
m.xm17.msky130_fd_pr__pfet_g5v0d10v5#sbody = 2.300000e+00
m.xm18.msky130_fd_pr__nfet_g5v0d10v5#body = 1.025165e-11
m.xm18.msky130_fd_pr__nfet_g5v0d10v5#dbody = 2.562906e-11
m.xm18.msky130_fd_pr__nfet_g5v0d10v5#sbody = 5.125905e-12
m.xm19.msky130_fd_pr__nfet_g5v0d10v5#body = 2.689321e-11
m.xm19.msky130_fd_pr__nfet_g5v0d10v5#dbody = 5.008698e-11
m.xm19.msky130_fd_pr__nfet_g5v0d10v5#sbody = 3.059264e-11
m.xm20.msky130_fd_pr__nfet_g5v0d10v5#body = 1.246894e-11
m.xm20.msky130_fd_pr__nfet_g5v0d10v5#dbody = 3.117225e-11
m.xm20.msky130_fd_pr__nfet_g5v0d10v5#sbody = 6.234547e-12
m.xm22.msky130_fd_pr__nfet_g5v0d10v5#body = 1.186754e-11
m.xm22.msky130_fd_pr__nfet_g5v0d10v5#dbody = 2.966873e-11
m.xm22.msky130_fd_pr__nfet_g5v0d10v5#sbody = 5.933885e-12
m.xm24.msky130_fd_pr__pfet_g5v0d10v5#body = 2.300000e+00
m.xm24.msky130_fd_pr__pfet_g5v0d10v5#dbody = 2.300000e+00
m.xm24.msky130_fd_pr__pfet_g5v0d10v5#sbody = 2.300000e+00
m.xm26.msky130_fd_pr__pfet_g5v0d10v5#body = 2.300000e+00
m.xm26.msky130_fd_pr__pfet_g5v0d10v5#dbody = 2.300000e+00
m.xm26.msky130_fd_pr__pfet_g5v0d10v5#sbody = 2.300000e+00
mir = 1.040973e+00
net1 = 6.313982e-01
net2 = 1.928757e-05
net3 = 7.052292e-01
net4 = 2.667635e-01
net5 = 1.046400e+00
net6 = 8.528474e-01
net7 = 7.051774e-01
net8 = 1.139354e+00
net9 = 1.146518e+00
net10 = 2.803823e-01
net11 = 6.645586e-01
net12 = 6.645586e-01
net13 = 0.000000e+00
out = 6.645586e-01
pos = 1.102543e+00
q.xq2.qsky130_fd_pr__pnp_05v5_w0p68l0p68#collcx = 3.100747e-03
q.xq3.qsky130_fd_pr__pnp_05v5_w0p68l0p68#collcx = 3.915284e-04
q.xq4.qsky130_fd_pr__pnp_05v5_w0p68l0p68#collcx = 3.915284e-04
q.xq8.qsky130_fd_pr__pnp_05v5_w0p68l0p68#collcx = 3.915284e-04
q.xq10.qsky130_fd_pr__pnp_05v5_w0p68l0p68#collcx = 3.915284e-04
q.xq12.qsky130_fd_pr__pnp_05v5_w0p68l0p68#collcx = 3.915284e-04
q.xq14.qsky130_fd_pr__pnp_05v5_w0p68l0p68#collcx = 3.915284e-04
q.xq16.qsky130_fd_pr__pnp_05v5_w0p68l0p68#collcx = 3.915284e-04
q.xq18.qsky130_fd_pr__pnp_05v5_w0p68l0p68#collcx = 3.915284e-04
vb = 8.419409e-01
vdd = 2.300000e+00
vs#branch = -1.00843e-01
vt#branch = 0.000000e+00
xc1.a = 0.000000e+00
xc1.b1 = 0.000000e+00
xc3.a = 6.645586e-01
xc3.b1 = 6.645586e-01
xr1.xsky130_fd_pr__res_xhigh_po_0p69.ra = 7.084270e-01
xr2.xsky130_fd_pr__res_xhigh_po_0p69.ra = 7.084788e-01
xr3.xsky130_fd_pr__res_xhigh_po_0p69.ra = 1.987579e-03
xr4.xsky130_fd_pr__res_xhigh_po_0p69.ra = 6.326975e-01
xr5.xsky130_fd_pr__res_xhigh_po_0p69.ra = 1.987425e-03
xr6.xsky130_fd_pr__res_xhigh_po_0p69.ra = 3.437813e-03
xr7.xsky130_fd_pr__res_xhigh_po_0p69.ra = 6.645586e-01
xr8.xsky130_fd_pr__res_xhigh_po_0p69.ra = 1.107762e+00
xr9.xsky130_fd_pr__res_xhigh_po_0p69.ra = 5.388715e-03
Doing analysis at TEMP = 85.000000 and TNOM = 27.000000


No. of Data Rows : 91
Error: no such vector PM
Note: Starting true gmin stepping
Trying gmin =   1.0000E-03 Note: One successful gmin step
Trying gmin =   1.0000E-04 Note: One successful gmin step
Trying gmin =   1.0000E-05 Note: One successful gmin step
Trying gmin =   1.0000E-06 Note: One successful gmin step
Trying gmin =   1.0000E-07 Note: One successful gmin step
Trying gmin =   1.0000E-08 Note: One successful gmin step
Trying gmin =   3.1623E-09 Note: One successful gmin step
Trying gmin =   5.6234E-10 Note: One successful gmin step
Trying gmin =   5.6234E-11 Note: One successful gmin step
Trying gmin =   5.6234E-12 Note: One successful gmin step
Trying gmin =   1.0000E-12 Note: One successful gmin step
Note: True gmin stepping completed
 Reference value :  1.26000e+00Note: Starting true gmin stepping
Trying gmin =   1.0000E-03 Note: One successful gmin step
Trying gmin =   1.0000E-04 Note: One successful gmin step
Trying gmin =   1.0000E-05 Note: One successful gmin step
Trying gmin =   1.0000E-06 Note: One successful gmin step
Trying gmin =   1.0000E-07 Note: One successful gmin step
Trying gmin =   1.0000E-08 Note: One successful gmin step
Trying gmin =   1.0000E-09 Note: One successful gmin step
Trying gmin =   1.0000E-10 Note: One successful gmin step
Trying gmin =   1.0000E-11 Note: One successful gmin step
Trying gmin =   1.0000E-12 Note: One successful gmin step
Trying gmin =   1.0000E-12 Note: One successful gmin step
Note: True gmin stepping completed

Error: measure  pm  (AT) : out of interval
 meas ac pm find p when vdb(ldo_out)=0 failed!

Doing analysis at TEMP = 85.000000 and TNOM = 27.000000


No. of Data Rows : 91
psrr100             =  -5.067895e+01
psrr100k            =  -2.424455e+01
Doing analysis at TEMP = 85.000000 and TNOM = 27.000000


No. of Data Rows : 86
temp_coeff = 6.827830e+01
Doing analysis at TEMP = 85.000000 and TNOM = 27.000000


No. of Data Rows : 141
vldo_sup_2          =  1.771803e+00
vldo_sup_2_8        =  1.813667e+00
line_reg = 5.233000e-02
Note: No ".plot", ".print", or ".fourier" lines; no simulations run
vin                 =  1.992803e+00
dropout = 2.288030e-01
