Note: Starting true gmin stepping
Trying gmin =   1.0000E-03 Note: One successful gmin step
Trying gmin =   1.0000E-04 Note: One successful gmin step
Trying gmin =   1.0000E-05 Note: One successful gmin step
Trying gmin =   1.0000E-06 Note: One successful gmin step
Trying gmin =   1.0000E-07 Warning: Further gmin increment
Trying gmin =   5.6234E-07 Note: One successful gmin step
Trying gmin =   2.3714E-07 Note: One successful gmin step
Trying gmin =   6.4938E-08 Warning: Further gmin increment
Trying gmin =   1.7154E-07 Note: One successful gmin step
Trying gmin =   1.0554E-07 Note: One successful gmin step
Trying gmin =   5.0937E-08 Note: One successful gmin step
Trying gmin =   3.5386E-08 Warning: Further gmin increment
Trying gmin =   4.6503E-08 Note: One successful gmin step
Trying gmin =   4.4433E-08 Note: One successful gmin step
Trying gmin =   4.1499E-08 Note: One successful gmin step
Trying gmin =   3.7458E-08 Note: One successful gmin step
Trying gmin =   3.2122E-08 Note: One successful gmin step
Trying gmin =   2.5509E-08 Note: One successful gmin step
Trying gmin =   1.8052E-08 Note: One successful gmin step
Trying gmin =   1.0747E-08 Note: One successful gmin step
Trying gmin =   4.9361E-09 Note: One successful gmin step
Trying gmin =   1.5366E-09 Note: One successful gmin step
Trying gmin =   2.6689E-10 Note: One successful gmin step
Trying gmin =   2.6689E-11 Note: One successful gmin step
Trying gmin =   2.6689E-12 Note: One successful gmin step
Trying gmin =   1.0000E-12 Note: One successful gmin step
Note: True gmin stepping completed
 Reference value :  0.00000e+00
No compatibility mode selected!


Circuit: * ldo netlist 

Doing analysis at TEMP = 0.000000 and TNOM = 27.000000


No. of Data Rows : 1
bg_out = 6.065942e-01
inn = 8.198582e-01
inp = 8.195010e-01
l1#branch = 0.000000e+00
ldo_out = 9.159550e-01
m.xm1.msky130_fd_pr__nfet_g5v0d10v5#body = 1.288977e-11
m.xm1.msky130_fd_pr__nfet_g5v0d10v5#dbody = 3.105664e-11
m.xm1.msky130_fd_pr__nfet_g5v0d10v5#sbody = 7.612655e-12
m.xm2.msky130_fd_pr__pfet_g5v0d10v5#body = 2.100000e+00
m.xm2.msky130_fd_pr__pfet_g5v0d10v5#dbody = 2.100000e+00
m.xm2.msky130_fd_pr__pfet_g5v0d10v5#sbody = 2.100000e+00
m.xm3.msky130_fd_pr__pfet_g5v0d10v5#body = 2.100000e+00
m.xm3.msky130_fd_pr__pfet_g5v0d10v5#dbody = 2.100000e+00
m.xm3.msky130_fd_pr__pfet_g5v0d10v5#sbody = 2.100000e+00
m.xm4.msky130_fd_pr__pfet_g5v0d10v5#body = 2.100000e+00
m.xm4.msky130_fd_pr__pfet_g5v0d10v5#dbody = 2.100000e+00
m.xm4.msky130_fd_pr__pfet_g5v0d10v5#sbody = 2.100000e+00
m.xm5.msky130_fd_pr__pfet_g5v0d10v5#body = 2.100000e+00
m.xm5.msky130_fd_pr__pfet_g5v0d10v5#dbody = 2.100000e+00
m.xm5.msky130_fd_pr__pfet_g5v0d10v5#sbody = 2.100000e+00
m.xm6.msky130_fd_pr__nfet_g5v0d10v5#body = 1.091909e-11
m.xm6.msky130_fd_pr__nfet_g5v0d10v5#dbody = 2.729772e-11
m.xm6.msky130_fd_pr__nfet_g5v0d10v5#sbody = 5.459548e-12
m.xm7.msky130_fd_pr__pfet_g5v0d10v5#body = 2.100000e+00
m.xm7.msky130_fd_pr__pfet_g5v0d10v5#dbody = 2.100000e+00
m.xm7.msky130_fd_pr__pfet_g5v0d10v5#sbody = 2.100000e+00
m.xm8.msky130_fd_pr__pfet_g5v0d10v5#body = 2.100000e+00
m.xm8.msky130_fd_pr__pfet_g5v0d10v5#dbody = 2.100000e+00
m.xm8.msky130_fd_pr__pfet_g5v0d10v5#sbody = 2.100000e+00
m.xm9.msky130_fd_pr__nfet_g5v0d10v5#body = 1.545811e-11
m.xm9.msky130_fd_pr__nfet_g5v0d10v5#dbody = 3.860643e-11
m.xm9.msky130_fd_pr__nfet_g5v0d10v5#sbody = 7.767883e-12
m.xm10.msky130_fd_pr__nfet_g5v0d10v5#body = 1.296136e-11
m.xm10.msky130_fd_pr__nfet_g5v0d10v5#dbody = 3.236457e-11
m.xm10.msky130_fd_pr__nfet_g5v0d10v5#sbody = 6.519511e-12
m.xm11.msky130_fd_pr__pfet_g5v0d10v5#body = 2.100000e+00
m.xm11.msky130_fd_pr__pfet_g5v0d10v5#dbody = 2.100000e+00
m.xm11.msky130_fd_pr__pfet_g5v0d10v5#sbody = 2.100000e+00
m.xm12.msky130_fd_pr__pfet_g5v0d10v5#body = 2.100000e+00
m.xm12.msky130_fd_pr__pfet_g5v0d10v5#dbody = 2.100000e+00
m.xm12.msky130_fd_pr__pfet_g5v0d10v5#sbody = 2.100000e+00
m.xm13.msky130_fd_pr__nfet_g5v0d10v5#body = 1.941432e-14
m.xm13.msky130_fd_pr__nfet_g5v0d10v5#dbody = 4.853567e-14
m.xm13.msky130_fd_pr__nfet_g5v0d10v5#sbody = 9.707285e-15
m.xm14.msky130_fd_pr__pfet_g5v0d10v5#body = 2.100000e+00
m.xm14.msky130_fd_pr__pfet_g5v0d10v5#dbody = 2.100000e+00
m.xm14.msky130_fd_pr__pfet_g5v0d10v5#sbody = 2.100000e+00
m.xm15.msky130_fd_pr__nfet_g5v0d10v5#body = 4.685972e-12
m.xm15.msky130_fd_pr__nfet_g5v0d10v5#dbody = 1.171493e-11
m.xm15.msky130_fd_pr__nfet_g5v0d10v5#sbody = 2.342986e-12
m.xm16.msky130_fd_pr__nfet_g5v0d10v5#body = 3.649834e-11
m.xm16.msky130_fd_pr__nfet_g5v0d10v5#dbody = 7.074929e-11
m.xm16.msky130_fd_pr__nfet_g5v0d10v5#sbody = 3.874574e-11
m.xm17.msky130_fd_pr__pfet_g5v0d10v5#body = 2.100000e+00
m.xm17.msky130_fd_pr__pfet_g5v0d10v5#dbody = 2.100000e+00
m.xm17.msky130_fd_pr__pfet_g5v0d10v5#sbody = 2.100000e+00
m.xm18.msky130_fd_pr__nfet_g5v0d10v5#body = 1.721405e-11
m.xm18.msky130_fd_pr__nfet_g5v0d10v5#dbody = 4.303314e-11
m.xm18.msky130_fd_pr__nfet_g5v0d10v5#sbody = 8.607030e-12
m.xm19.msky130_fd_pr__nfet_g5v0d10v5#body = 1.343433e-11
m.xm19.msky130_fd_pr__nfet_g5v0d10v5#dbody = 3.241805e-11
m.xm19.msky130_fd_pr__nfet_g5v0d10v5#sbody = 7.884936e-12
m.xm20.msky130_fd_pr__nfet_g5v0d10v5#body = 1.093827e-11
m.xm20.msky130_fd_pr__nfet_g5v0d10v5#dbody = 2.734566e-11
m.xm20.msky130_fd_pr__nfet_g5v0d10v5#sbody = 5.469139e-12
m.xm22.msky130_fd_pr__nfet_g5v0d10v5#body = 5.839168e-13
m.xm22.msky130_fd_pr__nfet_g5v0d10v5#dbody = 1.459791e-12
m.xm22.msky130_fd_pr__nfet_g5v0d10v5#sbody = 2.919597e-13
m.xm24.msky130_fd_pr__pfet_g5v0d10v5#body = 2.100000e+00
m.xm24.msky130_fd_pr__pfet_g5v0d10v5#dbody = 2.100000e+00
m.xm24.msky130_fd_pr__pfet_g5v0d10v5#sbody = 2.100000e+00
m.xm26.msky130_fd_pr__pfet_g5v0d10v5#body = 2.100000e+00
m.xm26.msky130Note: Starting true gmin stepping
Trying gmin =   1.0000E-03 Note: One successful gmin step
Trying gmin =   1.0000E-04 Note: One successful gmin step
Trying gmin =   1.0000E-05 Note: One successful gmin step
Trying gmin =   1.0000E-06 Note: One successful gmin step
Trying gmin =   1.0000E-07 Warning: Further gmin increment
Trying gmin =   5.6234E-07 Note: One successful gmin step
Trying gmin =   2.3714E-07 Note: One successful gmin step
Trying gmin =   6.4938E-08 Warning: Further gmin increment
Trying gmin =   1.7154E-07 Note: One successful gmin step
Trying gmin =   1.0554E-07 Note: One successful gmin step
Trying gmin =   5.0937E-08 Note: One successful gmin step
Trying gmin =   3.5386E-08 Warning: Further gmin increment
Trying gmin =   4.6503E-08 Note: One successful gmin step
Trying gmin =   4.4433E-08 Note: One successful gmin step
Trying gmin =   4.1499E-08 Note: One successful gmin step
Trying gmin =   3.7458E-08 Note: One successful gmin step
Trying gmin =   3.2122E-08 Note: One successful gmin step
Trying gmin =   2.5509E-08 Note: One successful gmin step
Trying gmin =   1.8052E-08 Note: One successful gmin step
Trying gmin =   1.0747E-08 Note: One successful gmin step
Trying gmin =   4.9361E-09 Note: One successful gmin step
Trying gmin =   1.5366E-09 Note: One successful gmin step
Trying gmin =   2.6689E-10 Note: One successful gmin step
Trying gmin =   2.6689E-11 Note: One successful gmin step
Trying gmin =   2.6689E-12 Note: One successful gmin step
Trying gmin =   1.0000E-12 Note: One successful gmin step
Note: True gmin stepping completed
_fd_pr__pfet_g5v0d10v5#dbody = 2.100000e+00
m.xm26.msky130_fd_pr__pfet_g5v0d10v5#sbody = 2.100000e+00
mir = 9.844657e-01
net1 = 5.989293e-01
net2 = 3.748627e-01
net3 = 5.993541e-01
net4 = 4.670690e-02
net5 = 1.028031e+00
net6 = 8.735196e-01
net7 = 5.989922e-01
net8 = 1.035352e+00
net9 = 1.235092e+00
net10 = 1.553041e-03
net11 = 1.377043e+00
net12 = 1.377043e+00
net13 = 0.000000e+00
out = 1.377043e+00
pos = 6.091012e-01
q.xq2.qsky130_fd_pr__pnp_05v5_w0p68l0p68#collcx = 2.739548e-07
q.xq3.qsky130_fd_pr__pnp_05v5_w0p68l0p68#collcx = 2.692151e-07
q.xq4.qsky130_fd_pr__pnp_05v5_w0p68l0p68#collcx = 2.692151e-07
q.xq8.qsky130_fd_pr__pnp_05v5_w0p68l0p68#collcx = 2.692151e-07
q.xq10.qsky130_fd_pr__pnp_05v5_w0p68l0p68#collcx = 2.692151e-07
q.xq12.qsky130_fd_pr__pnp_05v5_w0p68l0p68#collcx = 2.692151e-07
q.xq14.qsky130_fd_pr__pnp_05v5_w0p68l0p68#collcx = 2.692151e-07
q.xq16.qsky130_fd_pr__pnp_05v5_w0p68l0p68#collcx = 2.692151e-07
q.xq18.qsky130_fd_pr__pnp_05v5_w0p68l0p68#collcx = 2.692151e-07
vb = 8.750595e-01
vdd = 2.100000e+00
vs#branch = -7.96263e-05
vt#branch = 0.000000e+00
xc1.a = 0.000000e+00
xc1.b1 = 0.000000e+00
xc3.a = 1.377043e+00
xc3.b1 = 1.377043e+00
xr1.xsky130_fd_pr__res_xhigh_po_0p69.ra = 6.015315e-01
xr2.xsky130_fd_pr__res_xhigh_po_0p69.ra = 6.018932e-01
xr3.xsky130_fd_pr__res_xhigh_po_0p69.ra = 2.600222e-03
xr4.xsky130_fd_pr__res_xhigh_po_0p69.ra = 5.989311e-01
xr5.xsky130_fd_pr__res_xhigh_po_0p69.ra = 2.598577e-03
xr6.xsky130_fd_pr__res_xhigh_po_0p69.ra = 2.633153e-03
xr7.xsky130_fd_pr__res_xhigh_po_0p69.ra = 1.377043e+00
xr8.xsky130_fd_pr__res_xhigh_po_0p69.ra = 6.136195e-01
xr9.xsky130_fd_pr__res_xhigh_po_0p69.ra = 4.612969e-03
Doing analysis at TEMP = 0.000000 and TNOM = 27.000000


No. of Data Rows : 91
Note: Starting true gmin stepping
Trying gmin =   1.0000E-03 Note: One successful gmin step
Trying gmin =   1.0000E-04 Note: One successful gmin step
Trying gmin =   1.0000E-05 Note: One successful gmin step
Trying gmin =   1.0000E-06 Note: One successful gmin step
Trying gmin =   1.0000E-07 Warning: Further gmin increment
Trying gmin =   5.6234E-07 Note: One successful gmin step
Trying gmin =   2.3714E-07 Note: One successful gmin step
Trying gmin =   6.4938E-08 Warning: Further gmin increment
Trying gmin =   1.7154E-07 Note: One successful gmin step
Trying gmin =   1.0554E-07 Note: One successful gmin step
Trying gmin =   5.0937E-08 Note: One successful gmin step
Trying gmin =   3.5386E-08 Warning: Further gmin increment
Trying gmin =   4.6503E-08 Note: One successful gmin step
Trying gmin =   4.4433E-08 Note: One successful gmin step
Trying gmin =   4.1499E-08 Note: One successful gmin step
Trying gmin =   3.7458E-08 Note: One successful gmin step
Trying gmin =   3.2122E-08 Note: One successful gmin step
Trying gmin =   2.5509E-08 Note: One successful gmin step
Trying gmin =   1.8052E-08 Note: One successful gmin step
Trying gmin =   1.0747E-08 Note: One successful gmin step
Trying gmin =   4.9361E-09 Note: One successful gmin step
Trying gmin =   1.5366E-09 Note: One successful gmin step
Trying gmin =   2.6689E-10 Note: One successful gmin step
Trying gmin =   2.6689E-11 Note: One successful gmin step
Trying gmin =   2.6689E-12 Note: One successful gmin step
Trying gmin =   1.0000E-12 Note: One successful gmin step
Note: True gmin stepping completed
 Reference value :  1.00000e+00Note: Starting true gmin stepping
Trying gmin =   1.0000E-03 Note: One successful gmin step
Trying gmin =   1.0000E-04 Note: One successful gmin step
Trying gmin =   1.0000E-05 Note: One successful gmin step
Trying gmin =   1.0000E-06 Note: One successful gmin step
Trying gmin =   1.0000E-07 Note: One successful gmin step
Trying gmin =   1.0000E-08 Warning: Further gmin increment
Trying gmin =   5.6234E-08 Note: One successful gmin step
Trying gmin =   2.3714E-08 Error: -3.90729e+155, 2 out of range for ^
Warning: Further gmin increment
Trying gmin =   4.5316E-08 Note: One successful gmin step
Trying gmin =   3.2781E-08 Warning: Further gmin increment
Trying gmin =   4.1792E-08 Note: One successful gmin step
Trying gmin =   3.7013E-08 Warning: Further gmin increment
Trying gmin =   4.0542E-08 Note: One successful gmin step
Trying gmin =   3.8738E-08 Note: One successful gmin step
Trying gmin =   3.6180E-08 Warning: Further gmin increment
Trying gmin =   3.8082E-08 Note: One successful gmin step
Trying gmin =   3.7119E-08 Warning: Further gmin increment
Trying gmin =   3.7839E-08 Note: One successful gmin step
Trying gmin =   3.7477E-08 Note: One successful gmin step
Trying gmin =   3.6941E-08 Warning: Further gmin increment
Trying gmin =   3.7342E-08 Note: One successful gmin step
Trying gmin =   3.7141E-08 Warning: Further gmin increment
Trying gmin =   3.7292E-08 Note: One successful gmin step
Trying gmin =   3.7217E-08 Warning: Further gmin increment
Trying gmin =   3.7273E-08 Note: One successful gmin step
Trying gmin =   3.7245E-08 Note: One successful gmin step
Trying gmin =   3.7202E-08 Warning: Further gmin increment
Trying gmin =   3.7234E-08 Note: One successful gmin step
Trying gmin =   3.7218E-08 Warning: Further gmin increment
Trying gmin =   3.7230E-08 Warning: Further gmin increment
Trying gmin =   3.7233E-08 Warning: Last gmin step failed
Warning: True gmin stepping failed
Note: Starting dynamic gmin stepping
Trying gmin =   1.0000E-03 Note: One successful gmin step
Trying gmin =   1.0000E-04 Note: One successful gmin step
Trying gmin =   1.0000E-05 Warning: Further gmin increment
Trying gmin =   5.6234E-05 Note: One successful gmin step
Trying gmin =   2.3714E-05 Note: One successful gmin step
Trying gmin =   6.4938E-06 Warning: Further gmin increment
Trying gmin =   1.7154E-05 Note: One successful gmin step
Trying gmin =   1.0554E-05 Warning: Further gmin increment
Trying gmin =   1.5193E-05 Note: One successful gmin step
Trying gmin =   1.2663E-05 Warning: Further gmin increment
Trying gmin =   1.4517E-05 Note: One successful gmin step
Trying gmin =   1.3558E-05 Warning: Further gmin increment
Trying gmin =   1.4271E-05 Note: One successful gmin step
Trying gmin =   1.3910E-05 Note: One successful gmin step
Trying gmin =   1.3386E-05 Note: One successful gmin step
Trying gmin =   1.2636E-05 Note: One successful gmin step
Trying gmin =   1.1590E-05 Note: One successful gmin step
Trying gmin =   1.0180E-05 Note: One successful gmin step
Trying gmin =   8.3808E-06 Note: One successful gmin step
Trying gmin =   6.2601E-06 Note: One successful gmin step
Trying gmin =   4.0413E-06 Warning: Further gmin increment
Trying gmin =   5.6113E-06 Note: One successful gmin step
Trying gmin =   4.7621E-06 Note: One successful gmin step
Trying gmin =   4.0413E-06 Note: One successful gmin step
Trying gmin =   3.1595E-06 Note: One successful gmin step
Trying gmin =   2.1840E-06 Note: One successful gmin step
Trying gmin =   1.2552E-06 Note: One successful gmin step
Trying gmin =   5.4689E-07 Note: One successful gmin step
Trying gmin =   1.5728E-07 Warning: Further gmin increment
Trying gmin =   4.0049E-07 Note: One successful gmin step
Trying gmin =   2.5098E-07 Note: One successful gmin step
Trying gmin =   1.2451E-07 Warning: Further gmin increment
Trying gmin =   2.1063E-07 Note: One successful gmin step
Trying gmin =   1.6194E-07 Warning: Further gmin increment
Trying gmin =   1.9724E-07 Note: One successful gmin step
Trying gmin =   1.7872E-07 Note: One successful gmin step
Trying gmin =   1.5415E-07 Warning: Further gmin increment
Trying gmin =   1.7223E-07 Note: One successful gmin step
Trying gmin =   1.6294E-07 Warning: Further gmin increment
Trying gmin =   1.6986E-07 Warning: Further gmin increment
Trying gmin =   1.7164E-07 Note: One successful gmin step
Trying gmin =   1.7075E-07 Warning: Further gmin increment
Trying gmin =   1.7142E-07 Note: One successful gmin step
Trying gmin =   1.7108E-07 Note: One successful gmin step
Trying gmin =   1.7058E-07 Warning: Further gmin increment
Trying gmin =   1.7096E-07 Note: One successful gmin step
Trying gmin =   1.7077E-07 Warning: Further gmin increment
Trying gmin =   1.7091E-07 Note: One successful gmin step
Trying gmin =   1.7084E-07 Warning: Further gmin increment
Trying gmin =   1.7089E-07 Warning: Further gmin increment
Trying gmin =   1.7091E-07 Note: One successful gmin step
Trying gmin =   1.7090E-07 Warning: Last gmin step failed
Warning: Dynamic gmin stepping failed
Note: Starting source stepping
Supplies reduced to   0.0000% Note: One successful source step
Supplies reduced to   0.1000% Note: One successful source step
Supplies reduced to   0.2000% Note: One successful source step
Supplies reduced to   0.3500% Note: One successful source step
Supplies reduced to   0.5750% Note: One successful source step
Supplies reduced to   0.9125% Note: One successful source step
Supplies reduced to   1.4188% Note: One successful source step
Supplies reduced to   2.1781% Note: One successful source step
Supplies reduced to   3.3172% Note: One successful source step
Supplies reduced to   5.0258% Note: One successful source step
Supplies reduced to   7.5887% Note: One successful source step
Supplies reduced to  11.4330% Note: One successful source step
Supplies reduced to  17.1995% Note: One successful source step
Supplies reduced to  25.8493% Supplies reduced to  17.1995% Note: One successful source step
Supplies reduced to  18.1995% Note: One successful source step
Supplies reduced to  19.6995% Note: One successful source step
Supplies reduced to  21.9495% Note: One successful source step
Supplies reduced to  25.3245% Supplies reduced to  21.9495% Note: One successful source step
Supplies reduced to  22.2870% Note: One successful source step
Supplies reduced to  22.7933% Note: One successful source step
Supplies reduced to  23.5526% Note: One successful source step
Supplies reduced to  24.6917% Note: One successful source step
Supplies reduced to  26.4003% Note: One successful source step
Supplies reduced to  28.9632% Note: One successful source step
Supplies reduced to  32.8075% Note: One successful source step
Supplies reduced to  38.5740% Note: One successful source step
Supplies reduced to  47.2238% Supplies reduced to  38.5740% Note: One successful source step
Supplies reduced to  39.5740% Note: One successful source step
Supplies reduced to  41.0740% Note: One successful source step
Supplies reduced to  43.3240% Note: One successful source step
Supplies reduced to  46.6990% Note: One successful source step
Supplies reduced to  51.7615% Note: One successful source step
Supplies reduced to  59.3553% Note: One successful source step
Supplies reduced to  70.7459% Note: One successful source step
Supplies reduced to  87.8318% Supplies reduced to  70.7459% Note: One successful source step
Supplies reduced to  71.7459% Note: One successful source step
Supplies reduced to  73.2459% Note: One successful source step
Supplies reduced to  75.4959% Note: One successful source step
Supplies reduced to  78.8709% Note: One successful source step
Supplies reduced to  83.9334% Supplies reduced to  78.8709% Note: One successful source step
Supplies reduced to  79.6303% Note: One successful source step
Supplies reduced to  80.7693% Note: One successful source step
Supplies reduced to  82.4779% Note: One successful source step
Supplies reduced to  85.0408% Supplies reduced to  82.4779% Note: One successful source step
Supplies reduced to  82.8624% Note: One successful source step
Supplies reduced to  83.4390% Note: One successful source step
Supplies reduced to  84.3040% Supplies reduced to  83.4390% Note: One successful source step
Supplies reduced to  83.5688% Supplies reduced to  83.4390% Note: One successful source step
Supplies reduced to  83.4585% Note: One successful source step
Supplies reduced to  83.4877% Supplies reduced to  83.4585% Note: One successful source step
Supplies reduced to  83.4629% Note: One successful source step
Supplies reduced to  83.4694% Supplies reduced to  83.4629% Note: One successful source step
Supplies reduced to  83.4638% Note: One successful source step
Supplies reduced to  83.4653% Supplies reduced to  83.4638% Note: One successful source step
Supplies reduced to  83.4641% Note: One successful source step
Supplies reduced to  83.4644% Note: One successful source step
Supplies reduced to  83.4649% Note: One successful source step
Supplies reduced to  83.4656% Supplies reduced to  83.4649% Note: One successful source step
Supplies reduced to  83.4650% Note: One successful source step
Supplies reduced to  83.4652% Supplies reduced to  83.4650% Note: One successful source step
Supplies reduced to  83.4650% Note: One successful source step
Supplies reduced to  83.4651% Note: One successful source step
Supplies reduced to  83.4651% Note: One successful source step
Supplies reduced to  83.4652% Warning: source stepping failed
doAnalyses: Too many iterations without convergence

dc simulation(s) aborted
Error(parse.c--checkvalid): vldo_sup_2_8: zero length vector.
Error: RHS "abs((vldo_sup_2_8-vldo_sup_2)/0.8)" invalid
Error(parse.c--checkvalid): line_reg: zero length vector.
Error(parse.c--checkvalid): vin: zero length vector.
Error: RHS "vin-1.764" invalid
Error(parse.c--checkvalid): dropout: zero length vector.
Error: no such vector dropout
Note: No ".plot", ".print", or ".fourier" lines; no simulations run
pm                  =  8.344313e+01
Doing analysis at TEMP = 0.000000 and TNOM = 27.000000


No. of Data Rows : 91
psrr100             =  -3.356788e+01
psrr100k            =  -3.623162e+00
Doing analysis at TEMP = 0.000000 and TNOM = 27.000000


No. of Data Rows : 86
temp_coeff = 9.731886e+01
Doing analysis at TEMP = 0.000000 and TNOM = 27.000000


Error: measure  vldo_sup_2  (AT) : out of interval
 meas dc vldo_sup_2 find ldo_out at=2 failed!


Error: measure  vldo_sup_2_8  (AT) : out of interval
 meas dc vldo_sup_2_8 find ldo_out at=2.8 failed!


Error: measure  vin  (WHEN) : out of interval
 meas dc vin when v(ldo_out)=1.764 failed!

