Note: Starting true gmin stepping
Trying gmin =   1.0000E-03 Note: One successful gmin step
Trying gmin =   1.0000E-04 Note: One successful gmin step
Trying gmin =   1.0000E-05 Note: One successful gmin step
Trying gmin =   1.0000E-06 Note: One successful gmin step
Trying gmin =   1.0000E-07 Note: One successful gmin step
Trying gmin =   1.0000E-08 Warning: Further gmin increment
Trying gmin =   5.6234E-08 Note: One successful gmin step
Trying gmin =   2.3714E-08 Warning: Further gmin increment
Trying gmin =   4.5316E-08 Note: One successful gmin step
Trying gmin =   4.0679E-08 Note: One successful gmin step
Trying gmin =   3.4599E-08 Note: One successful gmin step
Trying gmin =   2.7139E-08 Note: One successful gmin step
Trying gmin =   1.8853E-08 Note: One successful gmin step
Trying gmin =   1.0917E-08 Note: One successful gmin step
Trying gmin =   4.8098E-09 Note: One successful gmin step
Trying gmin =   1.4067E-09 Note: One successful gmin step
Trying gmin =   2.2248E-10 Note: One successful gmin step
Trying gmin =   2.2248E-11 Note: One successful gmin step
Trying gmin =   2.2248E-12 Note: One successful gmin step
Trying gmin =   1.0000E-12 Note: One successful gmin step
Note: True gmin stepping completed
 Reference value :  0.00000e+00
No compatibility mode selected!


Circuit: * ldo netlist 

Doing analysis at TEMP = 0.000000 and TNOM = 27.000000


No. of Data Rows : 1
bg_out = 1.100675e+00
inn = 1.184203e+00
inp = 1.184141e+00
l1#branch = 0.000000e+00
ldo_out = 1.809048e+00
m.xm1.msky130_fd_pr__nfet_g5v0d10v5#body = 1.470444e-11
m.xm1.msky130_fd_pr__nfet_g5v0d10v5#dbody = 3.173521e-11
m.xm1.msky130_fd_pr__nfet_g5v0d10v5#sbody = 1.237812e-11
m.xm2.msky130_fd_pr__pfet_g5v0d10v5#body = 2.300000e+00
m.xm2.msky130_fd_pr__pfet_g5v0d10v5#dbody = 2.300000e+00
m.xm2.msky130_fd_pr__pfet_g5v0d10v5#sbody = 2.300000e+00
m.xm3.msky130_fd_pr__pfet_g5v0d10v5#body = 2.300000e+00
m.xm3.msky130_fd_pr__pfet_g5v0d10v5#dbody = 2.300000e+00
m.xm3.msky130_fd_pr__pfet_g5v0d10v5#sbody = 2.300000e+00
m.xm4.msky130_fd_pr__pfet_g5v0d10v5#body = 2.300000e+00
m.xm4.msky130_fd_pr__pfet_g5v0d10v5#dbody = 2.300000e+00
m.xm4.msky130_fd_pr__pfet_g5v0d10v5#sbody = 2.300000e+00
m.xm5.msky130_fd_pr__pfet_g5v0d10v5#body = 2.300000e+00
m.xm5.msky130_fd_pr__pfet_g5v0d10v5#dbody = 2.300000e+00
m.xm5.msky130_fd_pr__pfet_g5v0d10v5#sbody = 2.300000e+00
m.xm6.msky130_fd_pr__nfet_g5v0d10v5#body = 1.250236e-11
m.xm6.msky130_fd_pr__nfet_g5v0d10v5#dbody = 3.125589e-11
m.xm6.msky130_fd_pr__nfet_g5v0d10v5#sbody = 6.251183e-12
m.xm7.msky130_fd_pr__pfet_g5v0d10v5#body = 2.300000e+00
m.xm7.msky130_fd_pr__pfet_g5v0d10v5#dbody = 2.300000e+00
m.xm7.msky130_fd_pr__pfet_g5v0d10v5#sbody = 2.300000e+00
m.xm8.msky130_fd_pr__pfet_g5v0d10v5#body = 2.300000e+00
m.xm8.msky130_fd_pr__pfet_g5v0d10v5#dbody = 2.300000e+00
m.xm8.msky130_fd_pr__pfet_g5v0d10v5#sbody = 2.300000e+00
m.xm9.msky130_fd_pr__nfet_g5v0d10v5#body = 1.511250e-11
m.xm9.msky130_fd_pr__nfet_g5v0d10v5#dbody = 3.449619e-11
m.xm9.msky130_fd_pr__nfet_g5v0d10v5#sbody = 1.084130e-11
m.xm10.msky130_fd_pr__nfet_g5v0d10v5#body = 1.486290e-11
m.xm10.msky130_fd_pr__nfet_g5v0d10v5#dbody = 3.387219e-11
m.xm10.msky130_fd_pr__nfet_g5v0d10v5#sbody = 1.071650e-11
m.xm11.msky130_fd_pr__pfet_g5v0d10v5#body = 2.300000e+00
m.xm11.msky130_fd_pr__pfet_g5v0d10v5#dbody = 2.300000e+00
m.xm11.msky130_fd_pr__pfet_g5v0d10v5#sbody = 2.300000e+00
m.xm12.msky130_fd_pr__pfet_g5v0d10v5#body = 2.300000e+00
m.xm12.msky130_fd_pr__pfet_g5v0d10v5#dbody = 2.300000e+00
m.xm12.msky130_fd_pr__pfet_g5v0d10v5#sbody = 2.300000e+00
m.xm13.msky130_fd_pr__nfet_g5v0d10v5#body = 1.642506e-12
m.xm13.msky130_fd_pr__nfet_g5v0d10v5#dbody = 4.106255e-12
m.xm13.msky130_fd_pr__nfet_g5v0d10v5#sbody = 8.212617e-13
m.xm14.msky130_fd_pr__pfet_g5v0d10v5#body = 2.300000e+00
m.xm14.msky130_fd_pr__pfet_g5v0d10v5#dbody = 2.300000e+00
m.xm14.msky130_fd_pr__pfet_g5v0d10v5#sbody = 2.300000e+00
m.xm15.msky130_fd_pr__nfet_g5v0d10v5#body = 3.096645e-16
m.xm15.msky130_fd_pr__nfet_g5v0d10v5#dbody = 7.741522e-16
m.xm15.msky130_fd_pr__nfet_g5v0d10v5#sbody = 1.548414e-16
m.xm16.msky130_fd_pr__nfet_g5v0d10v5#body = 4.355266e-11
m.xm16.msky130_fd_pr__nfet_g5v0d10v5#dbody = 7.927645e-11
m.xm16.msky130_fd_pr__nfet_g5v0d10v5#sbody = 5.138152e-11
m.xm17.msky130_fd_pr__pfet_g5v0d10v5#body = 2.300000e+00
m.xm17.msky130_fd_pr__pfet_g5v0d10v5#dbody = 2.300000e+00
m.xm17.msky130_fd_pr__pfet_g5v0d10v5#sbody = 2.300000e+00
m.xm18.msky130_fd_pr__nfet_g5v0d10v5#body = 8.195879e-12
m.xm18.msky130_fd_pr__nfet_g5v0d10v5#dbody = 2.048968e-11
m.xm18.msky130_fd_pr__nfet_g5v0d10v5#sbody = 4.097951e-12
m.xm19.msky130_fd_pr__nfet_g5v0d10v5#body = 1.480327e-11
m.xm19.msky130_fd_pr__nfet_g5v0d10v5#dbody = 3.198228e-11
m.xm19.msky130_fd_pr__nfet_g5v0d10v5#sbody = 1.242754e-11
m.xm20.msky130_fd_pr__nfet_g5v0d10v5#body = 1.307641e-11
m.xm20.msky130_fd_pr__nfet_g5v0d10v5#dbody = 3.269101e-11
m.xm20.msky130_fd_pr__nfet_g5v0d10v5#sbody = 6.538216e-12
m.xm22.msky130_fd_pr__nfet_g5v0d10v5#body = 2.512986e-12
m.xm22.msky130_fd_pr__nfet_g5v0d10v5#dbody = 6.282461e-12
m.xm22.msky130_fd_pr__nfet_g5v0d10v5#sbody = 1.256498e-12
m.xm24.msky130_fd_pr__pfet_g5v0d10v5#body = 2.300000e+00
m.xm24.msky130_fd_pr__pfet_g5v0d10v5#dbody = 2.300000e+00
m.xm24.msky130_fd_pr__pfet_g5v0d10v5#sbody = 2.300000e+00
m.xm26.msky130_fd_pr__pfet_g5v0d10v5#body = 2.300000e+00
m.xm26.msky130Note: Starting true gmin stepping
Trying gmin =   1.0000E-03 Note: One successful gmin step
Trying gmin =   1.0000E-04 Note: One successful gmin step
Trying gmin =   1.0000E-05 Note: One successful gmin step
Trying gmin =   1.0000E-06 Note: One successful gmin step
Trying gmin =   1.0000E-07 Note: One successful gmin step
Trying gmin =   1.0000E-08 Warning: Further gmin increment
Trying gmin =   5.6234E-08 Note: One successful gmin step
Trying gmin =   2.3714E-08 Warning: Further gmin increment
Trying gmin =   4.5316E-08 Note: One successful gmin step
Trying gmin =   4.0679E-08 Note: One successful gmin step
Trying gmin =   3.4599E-08 Note: One successful gmin step
Trying gmin =   2.7139E-08 Note: One successful gmin step
Trying gmin =   1.8853E-08 Note: One successful gmin step
Trying gmin =   1.0917E-08 Note: One successful gmin step
Trying gmin =   4.8098E-09 Note: One successful gmin step
Trying gmin =   1.4067E-09 Note: One successful gmin step
Trying gmin =   2.2248E-10 Note: One successful gmin step
Trying gmin =   2.2248E-11 Note: One successful gmin step
Trying gmin =   2.2248E-12 Note: One successful gmin step
Trying gmin =   1.0000E-12 Note: One successful gmin step
Note: True gmin stepping completed
_fd_pr__pfet_g5v0d10v5#dbody = 2.300000e+00
m.xm26.msky130_fd_pr__pfet_g5v0d10v5#sbody = 2.300000e+00
mir = 9.753147e-01
net1 = 7.746670e-01
net2 = 2.475844e-05
net3 = 8.280500e-01
net4 = 2.010312e-01
net5 = 9.832212e-01
net6 = 1.000181e+00
net7 = 8.279870e-01
net8 = 1.057626e+00
net9 = 1.077594e+00
net10 = 1.313987e-01
net11 = 6.556684e-01
net12 = 6.556684e-01
net13 = 0.000000e+00
out = 6.556684e-01
pos = 1.100853e+00
q.xq2.qsky130_fd_pr__pnp_05v5_w0p68l0p68#collcx = 1.707474e-03
q.xq3.qsky130_fd_pr__pnp_05v5_w0p68l0p68#collcx = 2.161847e-04
q.xq4.qsky130_fd_pr__pnp_05v5_w0p68l0p68#collcx = 2.161847e-04
q.xq8.qsky130_fd_pr__pnp_05v5_w0p68l0p68#collcx = 2.161847e-04
q.xq10.qsky130_fd_pr__pnp_05v5_w0p68l0p68#collcx = 2.161847e-04
q.xq12.qsky130_fd_pr__pnp_05v5_w0p68l0p68#collcx = 2.161847e-04
q.xq14.qsky130_fd_pr__pnp_05v5_w0p68l0p68#collcx = 2.161847e-04
q.xq16.qsky130_fd_pr__pnp_05v5_w0p68l0p68#collcx = 2.161847e-04
q.xq18.qsky130_fd_pr__pnp_05v5_w0p68l0p68#collcx = 2.161847e-04
vb = 1.046111e+00
vdd = 2.300000e+00
vs#branch = -1.00622e-01
vt#branch = 0.000000e+00
xc1.a = 0.000000e+00
xc1.b1 = 0.000000e+00
xc3.a = 6.556684e-01
xc3.b1 = 6.556684e-01
xr1.xsky130_fd_pr__res_xhigh_po_0p69.ra = 8.332458e-01
xr2.xsky130_fd_pr__res_xhigh_po_0p69.ra = 8.333087e-01
xr3.xsky130_fd_pr__res_xhigh_po_0p69.ra = 3.842937e-03
xr4.xsky130_fd_pr__res_xhigh_po_0p69.ra = 7.762036e-01
xr5.xsky130_fd_pr__res_xhigh_po_0p69.ra = 3.842625e-03
xr6.xsky130_fd_pr__res_xhigh_po_0p69.ra = 5.593731e-03
xr7.xsky130_fd_pr__res_xhigh_po_0p69.ra = 6.556684e-01
xr8.xsky130_fd_pr__res_xhigh_po_0p69.ra = 1.109353e+00
xr9.xsky130_fd_pr__res_xhigh_po_0p69.ra = 8.775122e-03
Doing analysis at TEMP = 0.000000 and TNOM = 27.000000


No. of Data Rows : 91
Error: no such vector PM
Note: Starting true gmin stepping
Trying gmin =   1.0000E-03 Note: One successful gmin step
Trying gmin =   1.0000E-04 Note: One successful gmin step
Trying gmin =   1.0000E-05 Note: One successful gmin step
Trying gmin =   1.0000E-06 Note: One successful gmin step
Trying gmin =   1.0000E-07 Note: One successful gmin step
Trying gmin =   1.0000E-08 Warning: Further gmin increment
Trying gmin =   5.6234E-08 Note: One successful gmin step
Trying gmin =   2.3714E-08 Warning: Further gmin increment
Trying gmin =   4.5316E-08 Note: One successful gmin step
Trying gmin =   4.0679E-08 Note: One successful gmin step
Trying gmin =   3.4599E-08 Note: One successful gmin step
Trying gmin =   2.7139E-08 Note: One successful gmin step
Trying gmin =   1.8853E-08 Note: One successful gmin step
Trying gmin =   1.0917E-08 Note: One successful gmin step
Trying gmin =   4.8098E-09 Note: One successful gmin step
Trying gmin =   1.4067E-09 Note: One successful gmin step
Trying gmin =   2.2248E-10 Note: One successful gmin step
Trying gmin =   2.2248E-11 Note: One successful gmin step
Trying gmin =   2.2248E-12 Note: One successful gmin step
Trying gmin =   1.0000E-12 Note: One successful gmin step
Note: True gmin stepping completed
 Reference value :  1.00000e+00Note: Starting true gmin stepping
Trying gmin =   1.0000E-03 Note: One successful gmin step
Trying gmin =   1.0000E-04 Note: One successful gmin step
Trying gmin =   1.0000E-05 Note: One successful gmin step
Trying gmin =   1.0000E-06 Note: One successful gmin step
Trying gmin =   1.0000E-07 Note: One successful gmin step
Trying gmin =   1.0000E-08 Note: One successful gmin step
Trying gmin =   1.0000E-09 Note: One successful gmin step
Trying gmin =   1.0000E-10 Note: One successful gmin step
Trying gmin =   1.0000E-11 Warning: Further gmin increment
Trying gmin =   5.6234E-11 Warning: Further gmin increment
Trying gmin =   8.6596E-11 Note: One successful gmin step
Trying gmin =   6.9783E-11 Warning: Further gmin increment
Trying gmin =   8.2047E-11 Note: One successful gmin step
Trying gmin =   7.5667E-11 Note: One successful gmin step
Trying gmin =   6.7015E-11 Warning: Further gmin increment
Trying gmin =   7.3404E-11 Note: One successful gmin step
Trying gmin =   7.0137E-11 Note: One successful gmin step
Trying gmin =   6.5506E-11 Warning: Further gmin increment
Trying gmin =   6.8950E-11 Note: One successful gmin step
Trying gmin =   6.7782E-11 Note: One successful gmin step
Trying gmin =   6.6068E-11 Note: One successful gmin step
Trying gmin =   6.3578E-11 Note: One successful gmin step
Trying gmin =   6.0018E-11 Note: One successful gmin step
Trying gmin =   5.5047E-11 Note: One successful gmin step
Trying gmin =   4.8353E-11 Note: One successful gmin step
Trying gmin =   3.9806E-11 Note: One successful gmin step
Trying gmin =   2.9734E-11 Note: One successful gmin step
Trying gmin =   1.9195E-11 Note: One successful gmin step
Trying gmin =   9.9564E-12 Note: One successful gmin step
Trying gmin =   3.7194E-12 Note: One successful gmin step
Trying gmin =   1.0000E-12 Note: One successful gmin step
Note: True gmin stepping completed
 Reference value :  1.36000e+00Note: Starting true gmin stepping
Trying gmin =   1.0000E-03 Note: One successful gmin step
Trying gmin =   1.0000E-04 Note: One successful gmin step
Trying gmin =   1.0000E-05 Note: One successful gmin step
Trying gmin =   1.0000E-06 Note: One successful gmin step
Trying gmin =   1.0000E-07 Note: One successful gmin step
Trying gmin =   1.0000E-08 Note: One successful gmin step
Trying gmin =   1.0000E-09 Note: One successful gmin step
Trying gmin =   1.0000E-10 Note: One successful gmin step
Trying gmin =   1.0000E-11 Note: One successful gmin step
Trying gmin =   3.1623E-12 Note: One successful gmin step
Trying gmin =   1.0000E-12 Note: One successful gmin step
Note: True gmin stepping completed

Error: measure  pm  (AT) : out of interval
 meas ac pm find p when vdb(ldo_out)=0 failed!

Doing analysis at TEMP = 0.000000 and TNOM = 27.000000


No. of Data Rows : 91
psrr100             =  -6.018041e+01
psrr100k            =  -2.492248e+01
Doing analysis at TEMP = 0.000000 and TNOM = 27.000000


No. of Data Rows : 86
temp_coeff = 4.596414e+01
Doing analysis at TEMP = 0.000000 and TNOM = 27.000000


No. of Data Rows : 141
vldo_sup_2          =  -2.556606e+00
vldo_sup_2_8        =  -2.556606e+00
line_reg = 0.000000e+00
Error(parse.c--checkvalid): vin: zero length vector.
Error: RHS "vin-1.764" invalid
Error(parse.c--checkvalid): dropout: zero length vector.
Error: no such vector dropout
Note: No ".plot", ".print", or ".fourier" lines; no simulations run

Error: measure  vin  (WHEN) : out of interval
 meas dc vin when v(ldo_out)=1.764 failed!

