 Reference value :  0.00000e+00
No compatibility mode selected!


Circuit: * ldo netlist 

Doing analysis at TEMP = 85.000000 and TNOM = 27.000000


No. of Data Rows : 1
bg_out = 1.096647e+00
inn = 1.058455e+00
inp = 1.058411e+00
l1#branch = 0.000000e+00
ldo_out = 1.802549e+00
m.xm1.msky130_fd_pr__nfet_g5v0d10v5#body = 2.699999e-11
m.xm1.msky130_fd_pr__nfet_g5v0d10v5#dbody = 5.036290e-11
m.xm1.msky130_fd_pr__nfet_g5v0d10v5#sbody = 3.063707e-11
m.xm2.msky130_fd_pr__pfet_g5v0d10v5#body = 2.300000e+00
m.xm2.msky130_fd_pr__pfet_g5v0d10v5#dbody = 2.300000e+00
m.xm2.msky130_fd_pr__pfet_g5v0d10v5#sbody = 2.300000e+00
m.xm3.msky130_fd_pr__pfet_g5v0d10v5#body = 2.300000e+00
m.xm3.msky130_fd_pr__pfet_g5v0d10v5#dbody = 2.300000e+00
m.xm3.msky130_fd_pr__pfet_g5v0d10v5#sbody = 2.300000e+00
m.xm4.msky130_fd_pr__pfet_g5v0d10v5#body = 2.300000e+00
m.xm4.msky130_fd_pr__pfet_g5v0d10v5#dbody = 2.300000e+00
m.xm4.msky130_fd_pr__pfet_g5v0d10v5#sbody = 2.300000e+00
m.xm5.msky130_fd_pr__pfet_g5v0d10v5#body = 2.300000e+00
m.xm5.msky130_fd_pr__pfet_g5v0d10v5#dbody = 2.300000e+00
m.xm5.msky130_fd_pr__pfet_g5v0d10v5#sbody = 2.300000e+00
m.xm6.msky130_fd_pr__nfet_g5v0d10v5#body = 1.907710e-11
m.xm6.msky130_fd_pr__nfet_g5v0d10v5#dbody = 4.769264e-11
m.xm6.msky130_fd_pr__nfet_g5v0d10v5#sbody = 9.538660e-12
m.xm7.msky130_fd_pr__pfet_g5v0d10v5#body = 2.300000e+00
m.xm7.msky130_fd_pr__pfet_g5v0d10v5#dbody = 2.300000e+00
m.xm7.msky130_fd_pr__pfet_g5v0d10v5#sbody = 2.300000e+00
m.xm8.msky130_fd_pr__pfet_g5v0d10v5#body = 2.300000e+00
m.xm8.msky130_fd_pr__pfet_g5v0d10v5#dbody = 2.300000e+00
m.xm8.msky130_fd_pr__pfet_g5v0d10v5#sbody = 2.300000e+00
m.xm9.msky130_fd_pr__nfet_g5v0d10v5#body = 2.514327e-11
m.xm9.msky130_fd_pr__nfet_g5v0d10v5#dbody = 4.865946e-11
m.xm9.msky130_fd_pr__nfet_g5v0d10v5#sbody = 2.677036e-11
m.xm10.msky130_fd_pr__nfet_g5v0d10v5#body = 2.487688e-11
m.xm10.msky130_fd_pr__nfet_g5v0d10v5#dbody = 4.799349e-11
m.xm10.msky130_fd_pr__nfet_g5v0d10v5#sbody = 2.663717e-11
m.xm11.msky130_fd_pr__pfet_g5v0d10v5#body = 2.300000e+00
m.xm11.msky130_fd_pr__pfet_g5v0d10v5#dbody = 2.300000e+00
m.xm11.msky130_fd_pr__pfet_g5v0d10v5#sbody = 2.300000e+00
m.xm12.msky130_fd_pr__pfet_g5v0d10v5#body = 2.300000e+00
m.xm12.msky130_fd_pr__pfet_g5v0d10v5#dbody = 2.300000e+00
m.xm12.msky130_fd_pr__pfet_g5v0d10v5#sbody = 2.300000e+00
m.xm13.msky130_fd_pr__nfet_g5v0d10v5#body = 5.451970e-12
m.xm13.msky130_fd_pr__nfet_g5v0d10v5#dbody = 1.362986e-11
m.xm13.msky130_fd_pr__nfet_g5v0d10v5#sbody = 2.726050e-12
m.xm14.msky130_fd_pr__pfet_g5v0d10v5#body = 2.300000e+00
m.xm14.msky130_fd_pr__pfet_g5v0d10v5#dbody = 2.300000e+00
m.xm14.msky130_fd_pr__pfet_g5v0d10v5#sbody = 2.300000e+00
m.xm15.msky130_fd_pr__nfet_g5v0d10v5#body = 1.044820e-14
m.xm15.msky130_fd_pr__nfet_g5v0d10v5#dbody = 2.611976e-14
m.xm15.msky130_fd_pr__nfet_g5v0d10v5#sbody = 5.224828e-15
m.xm16.msky130_fd_pr__nfet_g5v0d10v5#body = 5.246106e-11
m.xm16.msky130_fd_pr__nfet_g5v0d10v5#dbody = 9.421090e-11
m.xm16.msky130_fd_pr__nfet_g5v0d10v5#sbody = 6.317227e-11
m.xm17.msky130_fd_pr__pfet_g5v0d10v5#body = 2.300000e+00
m.xm17.msky130_fd_pr__pfet_g5v0d10v5#dbody = 2.300000e+00
m.xm17.msky130_fd_pr__pfet_g5v0d10v5#sbody = 2.300000e+00
m.xm18.msky130_fd_pr__nfet_g5v0d10v5#body = 2.103770e-11
m.xm18.msky130_fd_pr__nfet_g5v0d10v5#dbody = 5.257405e-11
m.xm18.msky130_fd_pr__nfet_g5v0d10v5#sbody = 1.051893e-11
m.xm19.msky130_fd_pr__nfet_g5v0d10v5#body = 2.705952e-11
m.xm19.msky130_fd_pr__nfet_g5v0d10v5#dbody = 5.051172e-11
m.xm19.msky130_fd_pr__nfet_g5v0d10v5#sbody = 3.066684e-11
m.xm20.msky130_fd_pr__nfet_g5v0d10v5#body = 1.235267e-11
m.xm20.msky130_fd_pr__nfet_g5v0d10v5#dbody = 3.088159e-11
m.xm20.msky130_fd_pr__nfet_g5v0d10v5#sbody = 6.176406e-12
m.xm22.msky130_fd_pr__nfet_g5v0d10v5#body = 1.186304e-11
m.xm22.msky130_fd_pr__nfet_g5v0d10v5#dbody = 2.965750e-11
m.xm22.msky130_fd_pr__nfet_g5v0d10v5#sbody = 5.931628e-12
m.xm24.msky130_fd_pr__pfet_g5v0d10v5#body = 2.300000e+00
m.xm24.msky130_fd_pr__pfet_g5v0d10v5#dbody = 2.300000e+00
m.xm24.msky130_fd_pr__pfet_g5v0d10v5#sbody = 2.300000e+00
m.xm26.msky130_fd_pr__pfet_g5v0d10v5#body = 2.300000e+00
m.xm26.msky130_fd_pr__pfet_g5v0d10v5#dbody = 2.300000e+00
m.xm26.msky130_fd_pr__pfet_g5v0d10v5#sbody = 2.300000e+00
mir = 1.055301e+00
net1 = 6.283728e-01
net2 = 2.021396e-05
net3 = 7.016510e-01
net4 = 2.664070e-01
net5 = 1.060064e+00
net6 = 8.433050e-01
net7 = 7.016062e-01
net8 = 1.134809e+00
net9 = 1.156120e+00
net10 = 2.806179e-01
net11 = 1.526638e+00
net12 = 1.526638e+00
net13 = 0.000000e+00
out = 1.526638e+00
pos = 1.096893e+00
q.xq2.qsky130_fd_pr__pnp_05v5_w0p68l0p68#collcx = 2.838710e-03
q.xq3.qsky130_fd_pr__pnp_05v5_w0p68l0p68#collcx = 3.581262e-04
q.xq4.qsky130_fd_pr__pnp_05v5_w0p68l0p68#collcx = 3.581262e-04
q.xq8.qsky130_fd_pr__pnp_05v5_w0p68l0p68#collcx = 3.581262e-04
q.xq10.qsky130_fd_pr__pnp_05v5_w0p68l0p68#collcx = 3.581262e-04
q.xq12.qsky130_fd_pr__pnp_05v5_w0p68l0p68#collcx = 3.581262e-04
q.xq14.qsky130_fd_pr__pnp_05v5_w0p68l0p68#collcx = 3.581262e-04
q.xq16.qsky130_fd_pr__pnp_05v5_w0p68l0p68#collcx = 3.581262e-04
q.xq18.qsky130_fd_pr__pnp_05v5_w0p68l0p68#collcx = 3.581262e-04
vb = 8.326396e-01
vdd = 2.300000e+00
vs#branch = -1.83867e-04
vt#branch = 0.000000e+00
xc1.a = 0.000000e+00
xc1.b1 = 0.000000e+00
xc3.a = 1.526638e+00
xc3.b1 = 1.526638e+00
xr1.xsky130_fd_pr__res_xhigh_po_0p69.ra = 7.100295e-01
xr2.xsky130_fd_pr__res_xhigh_po_0p69.ra = 7.100744e-01
xr3.xsky130_fd_pr__res_xhigh_po_0p69.ra = 5.152615e-03
xr4.xsky130_fd_pr__res_xhigh_po_0p69.ra = 6.317404e-01
xr5.xsky130_fd_pr__res_xhigh_po_0p69.ra = 5.152267e-03
xr6.xsky130_fd_pr__res_xhigh_po_0p69.ra = 8.908489e-03
xr7.xsky130_fd_pr__res_xhigh_po_0p69.ra = 1.526638e+00
xr8.xsky130_fd_pr__res_xhigh_po_0p69.ra = 1.110431e+00
xr9.xsky130_fd_pr__res_xhigh_po_0p69.ra = 1.397532e-02
Doing analysis at TEMP = 85.000000 and TNOM = 27.000000


No. of Data Rows : 91
Note: Starting true gmin stepping
Trying gmin =   1.0000E-03 Note: One successful gmin step
Trying gmin =   1.0000E-04 Note: One successful gmin step
Trying gmin =   1.0000E-05 Note: One successful gmin step
Trying gmin =   1.0000E-06 Note: One successful gmin step
Trying gmin =   1.0000E-07 Note: One successful gmin step
Trying gmin =   1.0000E-08 Warning: Further gmin increment
Trying gmin =   5.6234E-08 Warning: Further gmin increment
Trying gmin =   8.6596E-08 Note: One successful gmin step
Trying gmin =   7.4989E-08 Note: One successful gmin step
Trying gmin =   6.0430E-08 Note: One successful gmin step
Trying gmin =   4.3714E-08 Note: One successful gmin step
Trying gmin =   2.6896E-08 Note: One successful gmin step
Trying gmin =   1.2980E-08 Note: One successful gmin step
Trying gmin =   4.3518E-09 Note: One successful gmin step
Trying gmin =   8.4481E-10 Note: One successful gmin step
Trying gmin =   8.4481E-11 Note: One successful gmin step
Trying gmin =   8.4481E-12 Note: One successful gmin step
Trying gmin =   1.0000E-12 Note: One successful gmin step
Note: True gmin stepping completed
 Reference value :  1.40000e+00Note: Starting true gmin stepping
Trying gmin =   1.0000E-03 Note: One successful gmin step
Trying gmin =   1.0000E-04 Note: One successful gmin step
Trying gmin =   1.0000E-05 Note: One successful gmin step
Trying gmin =   1.0000E-06 Note: One successful gmin step
Trying gmin =   1.0000E-07 Note: One successful gmin step
Trying gmin =   1.0000E-08 Warning: Further gmin increment
Trying gmin =   5.6234E-08 Note: One successful gmin step
Trying gmin =   2.3714E-08 Warning: Further gmin increment
Trying gmin =   4.5316E-08 Note: One successful gmin step
Trying gmin =   3.2781E-08 Note: One successful gmin step
Trying gmin =   2.0169E-08 Note: One successful gmin step
Trying gmin =   9.7338E-09 Note: One successful gmin step
Trying gmin =   3.2634E-09 Note: One successful gmin step
Trying gmin =   6.3352E-10 Note: One successful gmin step
Trying gmin =   6.3352E-11 Note: One successful gmin step
Trying gmin =   6.3352E-12 Note: One successful gmin step
Trying gmin =   1.0000E-12 Note: One successful gmin step
Note: True gmin stepping completed
Note: Starting true gmin stepping
Trying gmin =   1.0000E-03 Note: One successful gmin step
Trying gmin =   1.0000E-04 Note: One successful gmin step
Trying gmin =   1.0000E-05 Note: One successful gmin step
Trying gmin =   1.0000E-06 Note: One successful gmin step
Trying gmin =   1.0000E-07 Note: One successful gmin step
Trying gmin =   1.0000E-08 Note: One successful gmin step
Trying gmin =   1.0000E-09 Warning: Further gmin increment
Trying gmin =   5.6234E-09 Note: One successful gmin step
Trying gmin =   2.3714E-09 Warning: Further gmin increment
Trying gmin =   4.5316E-09 Note: One successful gmin step
Trying gmin =   3.2781E-09 Note: One successful gmin step
Trying gmin =   2.0169E-09 Note: One successful gmin step
Trying gmin =   9.7338E-10 Note: One successful gmin step
Trying gmin =   3.2634E-10 Note: One successful gmin step
Trying gmin =   6.3352E-11 Note: One successful gmin step
Trying gmin =   6.3352E-12 Note: One successful gmin step
Trying gmin =   1.0000E-12 Note: One successful gmin step
Note: True gmin stepping completed
 Reference value :  1.00000e+00pm                  =  6.270097e+01
Doing analysis at TEMP = 85.000000 and TNOM = 27.000000


No. of Data Rows : 91
psrr100             =  -5.285443e+01
psrr100k            =  -2.687839e+01
Doing analysis at TEMP = 85.000000 and TNOM = 27.000000


No. of Data Rows : 86
temp_coeff = 2.693635e+01
Doing analysis at TEMP = 85.000000 and TNOM = 27.000000


No. of Data Rows : 141
vldo_sup_2          =  1.801552e+00
vldo_sup_2_8        =  1.803336e+00
line_reg = 2.230000e-03
Note: No ".plot", ".print", or ".fourier" lines; no simulations run
vin                 =  1.764174e+00
dropout = 1.740000e-04
