 Reference value :  0.00000e+00
No compatibility mode selected!


Circuit: * ldo netlist 

Doing analysis at TEMP = 85.000000 and TNOM = 27.000000


No. of Data Rows : 1
bg_out = 1.102404e+00
inn = 1.068982e+00
inp = 1.068856e+00
l1#branch = -1.38778e-17
ldo_out = 1.812398e+00
m.xm1.msky130_fd_pr__nfet_g5v0d10v5#body = 2.636957e-11
m.xm1.msky130_fd_pr__nfet_g5v0d10v5#dbody = 5.063199e-11
m.xm1.msky130_fd_pr__nfet_g5v0d10v5#sbody = 2.847671e-11
m.xm2.msky130_fd_pr__pfet_g5v0d10v5#body = 2.300000e+00
m.xm2.msky130_fd_pr__pfet_g5v0d10v5#dbody = 2.300000e+00
m.xm2.msky130_fd_pr__pfet_g5v0d10v5#sbody = 2.300000e+00
m.xm3.msky130_fd_pr__pfet_g5v0d10v5#body = 2.300000e+00
m.xm3.msky130_fd_pr__pfet_g5v0d10v5#dbody = 2.300000e+00
m.xm3.msky130_fd_pr__pfet_g5v0d10v5#sbody = 2.300000e+00
m.xm4.msky130_fd_pr__pfet_g5v0d10v5#body = 2.300000e+00
m.xm4.msky130_fd_pr__pfet_g5v0d10v5#dbody = 2.300000e+00
m.xm4.msky130_fd_pr__pfet_g5v0d10v5#sbody = 2.300000e+00
m.xm5.msky130_fd_pr__pfet_g5v0d10v5#body = 2.300000e+00
m.xm5.msky130_fd_pr__pfet_g5v0d10v5#dbody = 2.300000e+00
m.xm5.msky130_fd_pr__pfet_g5v0d10v5#sbody = 2.300000e+00
m.xm6.msky130_fd_pr__nfet_g5v0d10v5#body = 2.034577e-11
m.xm6.msky130_fd_pr__nfet_g5v0d10v5#dbody = 5.086431e-11
m.xm6.msky130_fd_pr__nfet_g5v0d10v5#sbody = 1.017300e-11
m.xm7.msky130_fd_pr__pfet_g5v0d10v5#body = 2.300000e+00
m.xm7.msky130_fd_pr__pfet_g5v0d10v5#dbody = 2.300000e+00
m.xm7.msky130_fd_pr__pfet_g5v0d10v5#sbody = 2.300000e+00
m.xm8.msky130_fd_pr__pfet_g5v0d10v5#body = 2.300000e+00
m.xm8.msky130_fd_pr__pfet_g5v0d10v5#dbody = 2.300000e+00
m.xm8.msky130_fd_pr__pfet_g5v0d10v5#sbody = 2.300000e+00
m.xm9.msky130_fd_pr__nfet_g5v0d10v5#body = 2.457091e-11
m.xm9.msky130_fd_pr__nfet_g5v0d10v5#dbody = 4.926388e-11
m.xm9.msky130_fd_pr__nfet_g5v0d10v5#sbody = 2.444885e-11
m.xm10.msky130_fd_pr__nfet_g5v0d10v5#body = 2.427186e-11
m.xm10.msky130_fd_pr__nfet_g5v0d10v5#dbody = 4.851626e-11
m.xm10.msky130_fd_pr__nfet_g5v0d10v5#sbody = 2.429932e-11
m.xm11.msky130_fd_pr__pfet_g5v0d10v5#body = 2.300000e+00
m.xm11.msky130_fd_pr__pfet_g5v0d10v5#dbody = 2.300000e+00
m.xm11.msky130_fd_pr__pfet_g5v0d10v5#sbody = 2.300000e+00
m.xm12.msky130_fd_pr__pfet_g5v0d10v5#body = 2.300000e+00
m.xm12.msky130_fd_pr__pfet_g5v0d10v5#dbody = 2.300000e+00
m.xm12.msky130_fd_pr__pfet_g5v0d10v5#sbody = 2.300000e+00
m.xm13.msky130_fd_pr__nfet_g5v0d10v5#body = 4.438614e-12
m.xm13.msky130_fd_pr__nfet_g5v0d10v5#dbody = 1.109647e-11
m.xm13.msky130_fd_pr__nfet_g5v0d10v5#sbody = 2.219371e-12
m.xm14.msky130_fd_pr__pfet_g5v0d10v5#body = 2.300000e+00
m.xm14.msky130_fd_pr__pfet_g5v0d10v5#dbody = 2.300000e+00
m.xm14.msky130_fd_pr__pfet_g5v0d10v5#sbody = 2.300000e+00
m.xm15.msky130_fd_pr__nfet_g5v0d10v5#body = 2.495150e-14
m.xm15.msky130_fd_pr__nfet_g5v0d10v5#dbody = 6.237793e-14
m.xm15.msky130_fd_pr__nfet_g5v0d10v5#sbody = 1.247657e-14
m.xm16.msky130_fd_pr__nfet_g5v0d10v5#body = 5.271860e-11
m.xm16.msky130_fd_pr__nfet_g5v0d10v5#dbody = 9.446562e-11
m.xm16.msky130_fd_pr__nfet_g5v0d10v5#sbody = 6.369017e-11
m.xm17.msky130_fd_pr__pfet_g5v0d10v5#body = 2.300000e+00
m.xm17.msky130_fd_pr__pfet_g5v0d10v5#dbody = 2.300000e+00
m.xm17.msky130_fd_pr__pfet_g5v0d10v5#sbody = 2.300000e+00
m.xm18.msky130_fd_pr__nfet_g5v0d10v5#body = 1.720923e-11
m.xm18.msky130_fd_pr__nfet_g5v0d10v5#dbody = 4.302298e-11
m.xm18.msky130_fd_pr__nfet_g5v0d10v5#sbody = 8.604692e-12
m.xm19.msky130_fd_pr__nfet_g5v0d10v5#body = 2.654873e-11
m.xm19.msky130_fd_pr__nfet_g5v0d10v5#dbody = 5.107990e-11
m.xm19.msky130_fd_pr__nfet_g5v0d10v5#sbody = 2.856629e-11
m.xm20.msky130_fd_pr__nfet_g5v0d10v5#body = 1.434924e-11
m.xm20.msky130_fd_pr__nfet_g5v0d10v5#dbody = 3.587302e-11
m.xm20.msky130_fd_pr__nfet_g5v0d10v5#sbody = 7.174697e-12
m.xm22.msky130_fd_pr__nfet_g5v0d10v5#body = 1.093035e-11
m.xm22.msky130_fd_pr__nfet_g5v0d10v5#dbody = 2.732576e-11
m.xm22.msky130_fd_pr__nfet_g5v0d10v5#sbody = 5.465278e-12
m.xm24.msky130_fd_pr__pfet_g5v0d10v5#body = 2.300000e+00
m.xm24.msky130_fd_pr__pfet_g5v0d10v5#dbody = 2.300000e+00
m.xm24.msky130_fd_pr__pfet_g5v0d10v5#sbody = 2.300000e+00
m.xm26.msky130_fd_pr__pfet_g5v0d10v5#body = 2.300000e+00
m.xm26.msky130_fd_pr__pfet_g5v0d10v5#dbody = 2.300000e+00
m.xm26.msky130_fd_pr__pfet_g5v0d10v5#sbody = 2.300000e+00
mir = 1.073635e+00
net1 = 6.368855e-01
net2 = 4.811656e-05
net3 = 7.099618e-01
net4 = 1.888676e-01
net5 = 1.087969e+00
net6 = 9.397604e-01
net7 = 7.098341e-01
net8 = 1.162782e+00
net9 = 1.186706e+00
net10 = 1.949326e-01
net11 = 1.216126e+00
net12 = 1.216126e+00
net13 = 0.000000e+00
out = 1.216126e+00
pos = 1.102669e+00
q.xq2.qsky130_fd_pr__pnp_05v5_w0p68l0p68#collcx = 2.803386e-03
q.xq3.qsky130_fd_pr__pnp_05v5_w0p68l0p68#collcx = 3.566435e-04
q.xq4.qsky130_fd_pr__pnp_05v5_w0p68l0p68#collcx = 3.566435e-04
q.xq8.qsky130_fd_pr__pnp_05v5_w0p68l0p68#collcx = 3.566435e-04
q.xq10.qsky130_fd_pr__pnp_05v5_w0p68l0p68#collcx = 3.566435e-04
q.xq12.qsky130_fd_pr__pnp_05v5_w0p68l0p68#collcx = 3.566435e-04
q.xq14.qsky130_fd_pr__pnp_05v5_w0p68l0p68#collcx = 3.566435e-04
q.xq16.qsky130_fd_pr__pnp_05v5_w0p68l0p68#collcx = 3.566435e-04
q.xq18.qsky130_fd_pr__pnp_05v5_w0p68l0p68#collcx = 3.566435e-04
vb = 9.873272e-01
vdd = 2.300000e+00
vs#branch = -1.02060e-02
vt#branch = 0.000000e+00
xc1.a = 0.000000e+00
xc1.b1 = 0.000000e+00
xc3.a = 1.216126e+00
xc3.b1 = 1.216126e+00
xr1.xsky130_fd_pr__res_xhigh_po_0p69.ra = 7.158011e-01
xr2.xsky130_fd_pr__res_xhigh_po_0p69.ra = 7.159288e-01
xr3.xsky130_fd_pr__res_xhigh_po_0p69.ra = 3.676642e-03
xr4.xsky130_fd_pr__res_xhigh_po_0p69.ra = 6.392474e-01
xr5.xsky130_fd_pr__res_xhigh_po_0p69.ra = 3.675942e-03
xr6.xsky130_fd_pr__res_xhigh_po_0p69.ra = 6.313878e-03
xr7.xsky130_fd_pr__res_xhigh_po_0p69.ra = 1.216126e+00
xr8.xsky130_fd_pr__res_xhigh_po_0p69.ra = 1.112260e+00
xr9.xsky130_fd_pr__res_xhigh_po_0p69.ra = 9.902045e-03
Doing analysis at TEMP = 85.000000 and TNOM = 27.000000


No. of Data Rows : 91
Error: no such vector PM
Note: Starting true gmin stepping
Trying gmin =   1.0000E-03 Note: One successful gmin step
Trying gmin =   1.0000E-04 Note: One successful gmin step
Trying gmin =   1.0000E-05 Note: One successful gmin step
Trying gmin =   1.0000E-06 Note: One successful gmin step
Trying gmin =   1.0000E-07 Warning: Further gmin increment
Trying gmin =   5.6234E-07 Note: One successful gmin step
Trying gmin =   2.3714E-07 Note: One successful gmin step
Trying gmin =   6.4938E-08 Warning: Further gmin increment
Trying gmin =   1.7154E-07 Note: One successful gmin step
Trying gmin =   1.0554E-07 Warning: Further gmin increment
Trying gmin =   1.5193E-07 Warning: Further gmin increment
Trying gmin =   1.6641E-07 Note: One successful gmin step
Trying gmin =   1.5901E-07 Note: One successful gmin step
Trying gmin =   1.4851E-07 Warning: Further gmin increment
Trying gmin =   1.5631E-07 Note: One successful gmin step
Trying gmin =   1.5236E-07 Warning: Further gmin increment
Trying gmin =   1.5532E-07 Note: One successful gmin step
Trying gmin =   1.5383E-07 Note: One successful gmin step
Trying gmin =   1.5163E-07 Warning: Further gmin increment
Trying gmin =   1.5328E-07 Warning: Further gmin increment
Trying gmin =   1.5369E-07 Warning: Further gmin increment
Trying gmin =   1.5380E-07 Note: One successful gmin step
Trying gmin =   1.5375E-07 Warning: Further gmin increment
Trying gmin =   1.5378E-07 Note: One successful gmin step
Trying gmin =   1.5377E-07 Note: One successful gmin step
Trying gmin =   1.5374E-07 Warning: Further gmin increment
Trying gmin =   1.5376E-07 Note: One successful gmin step
Trying gmin =   1.5375E-07 Warning: Further gmin increment
Trying gmin =   1.5376E-07 Warning: Last gmin step failed
Warning: True gmin stepping failed
Note: Starting dynamic gmin stepping
Trying gmin =   1.0000E-03 Note: One successful gmin step
Trying gmin =   1.0000E-04 Note: One successful gmin step
Trying gmin =   1.0000E-05 Note: One successful gmin step
Trying gmin =   1.0000E-06 Note: One successful gmin step
Trying gmin =   1.0000E-07 Warning: Further gmin increment
Trying gmin =   5.6234E-07 Warning: Further gmin increment
Trying gmin =   8.6596E-07 Note: One successful gmin step
Trying gmin =   6.9783E-07 Warning: Further gmin increment
Trying gmin =   8.2047E-07 Note: One successful gmin step
Trying gmin =   7.5667E-07 Note: One successful gmin step
Trying gmin =   6.7015E-07 Warning: Further gmin increment
Trying gmin =   7.3404E-07 Note: One successful gmin step
Trying gmin =   7.0137E-07 Warning: Further gmin increment
Trying gmin =   7.2574E-07 Warning: Further gmin increment
Trying gmin =   7.3196E-07 Warning: Further gmin increment
Trying gmin =   7.3352E-07 Note: One successful gmin step
Trying gmin =   7.3274E-07 Warning: Further gmin increment
Trying gmin =   7.3333E-07 Note: One successful gmin step
Trying gmin =   7.3303E-07 Warning: Further gmin increment
Trying gmin =   7.3325E-07 Warning: Further gmin increment
Trying gmin =   7.3331E-07 Note: One successful gmin step
Trying gmin =   7.3328E-07 Warning: Last gmin step failed
Warning: Dynamic gmin stepping failed
Note: Starting source stepping
Supplies reduced to   0.0000% Note: One successful source step
Supplies reduced to   0.1000% Note: One successful source step
Supplies reduced to   0.2000% Note: One successful source step
Supplies reduced to   0.3500% Note: One successful source step
Supplies reduced to   0.5750% Note: One successful source step
Supplies reduced to   0.9125% Note: One successful source step
Supplies reduced to   1.4188% Note: One successful source step
Supplies reduced to   2.1781% Note: One successful source step
Supplies reduced to   3.3172% Note: One successful source step
Supplies reduced to   5.0258% Note: One successful source step
Supplies reduced to   7.5887% Note: One successful source step
Supplies reduced to  11.4330% Note: One successful source step
Supplies reduced to  17.1995% Note: One successful source step
Supplies reduced to  25.8493% Supplies reduced to  17.1995% Note: One successful source step
Supplies reduced to  18.1995% Note: One successful source step
Supplies reduced to  19.6995% Note: One successful source step
Supplies reduced to  21.9495% Note: One successful source step
Supplies reduced to  25.3245% Supplies reduced to  21.9495% Note: One successful source step
Supplies reduced to  22.4558% Note: One successful source step
Supplies reduced to  23.2151% Note: One successful source step
Supplies reduced to  23.5948% Note: One successful source step
Supplies reduced to  24.1644% Note: One successful source step
Supplies reduced to  25.0187% Note: One successful source step
Supplies reduced to  25.8729% Note: One successful source step
Supplies reduced to  27.1544% Note: One successful source step
Supplies reduced to  29.0766% Note: One successful source step
Supplies reduced to  31.9598% Note: One successful source step
Supplies reduced to  36.2847% Note: One successful source step
Supplies reduced to  42.7720% Note: One successful source step
Supplies reduced to  52.5030% Note: One successful source step
Supplies reduced to  67.0994% Supplies reduced to  52.5030% Note: One successful source step
Supplies reduced to  53.5030% Note: One successful source step
Supplies reduced to  55.0030% Note: One successful source step
Supplies reduced to  57.2530% Note: One successful source step
Supplies reduced to  60.6280% Supplies reduced to  57.2530% Note: One successful source step
Supplies reduced to  57.7592% Note: One successful source step
Supplies reduced to  58.5186% Note: One successful source step
Supplies reduced to  59.6577% Note: One successful source step
Supplies reduced to  61.3663% Supplies reduced to  59.6577% Note: One successful source step
Supplies reduced to  59.9140% Note: One successful source step
Supplies reduced to  60.2984% Note: One successful source step
Supplies reduced to  60.8750% Supplies reduced to  60.2984% Note: One successful source step
Supplies reduced to  60.3849% Note: One successful source step
Supplies reduced to  60.5146% Supplies reduced to  60.3849% Note: One successful source step
Supplies reduced to  60.4044% Note: One successful source step
Supplies reduced to  60.4335% Supplies reduced to  60.4044% Note: One successful source step
Supplies reduced to  60.4087% Note: One successful source step
Supplies reduced to  60.4153% Note: One successful source step
Supplies reduced to  60.4252% Note: One successful source step
Supplies reduced to  60.4399% Supplies reduced to  60.4252% Note: One successful source step
Supplies reduced to  60.4274% Note: One successful source step
Supplies reduced to  60.4307% Supplies reduced to  60.4274% Note: One successful source step
Supplies reduced to  60.4279% Note: One successful source step
Supplies reduced to  60.4286% Note: One successful source step
Supplies reduced to  60.4297% Supplies reduced to  60.4286% Note: One successful source step
Supplies reduced to  60.4288% Note: One successful source step
Supplies reduced to  60.4290% Note: One successful source step
Supplies reduced to  60.4294% Note: One successful source step
Supplies reduced to  60.4300% Supplies reduced to  60.4294% Note: One successful source step
Supplies reduced to  60.4295% Note: One successful source step
Supplies reduced to  60.4296% Supplies reduced to  60.4295% Note: One successful source step
Supplies reduced to  60.4295% Note: One successful source step
Supplies reduced to  60.4296% Note: One successful source step
Supplies reduced to  60.4296% Warning: source stepping failed
doAnalyses: Too many iterations without convergence

dc simulation(s) aborted
Error(parse.c--checkvalid): vldo_sup_2_8: zero length vector.
Error: RHS "abs((vldo_sup_2_8-vldo_sup_2)/0.8)" invalid
Error(parse.c--checkvalid): line_reg: zero length vector.
Error(parse.c--checkvalid): vin: zero length vector.
Error: RHS "vin-1.764" invalid
Error(parse.c--checkvalid): dropout: zero length vector.
Error: no such vector dropout
Note: No ".plot", ".print", or ".fourier" lines; no simulations run

Error: measure  pm  (AT) : out of interval
 meas ac pm find p when vdb(ldo_out)=0 failed!

Doing analysis at TEMP = 85.000000 and TNOM = 27.000000


No. of Data Rows : 91
psrr100             =  -5.057645e+01
psrr100k            =  -2.509460e+01
Doing analysis at TEMP = 85.000000 and TNOM = 27.000000


No. of Data Rows : 86
temp_coeff = 4.647302e+01
Doing analysis at TEMP = 85.000000 and TNOM = 27.000000


Error: measure  vldo_sup_2  (AT) : out of interval
 meas dc vldo_sup_2 find ldo_out at=2 failed!


Error: measure  vldo_sup_2_8  (AT) : out of interval
 meas dc vldo_sup_2_8 find ldo_out at=2.8 failed!


Error: measure  vin  (WHEN) : out of interval
 meas dc vin when v(ldo_out)=1.764 failed!

