 Reference value :  0.00000e+00
No compatibility mode selected!


Circuit: * ldo netlist 

Doing analysis at TEMP = 27.000000 and TNOM = 27.000000


No. of Data Rows : 1
bg_out = 1.192592e+00
inn = 1.222483e+00
inp = 1.222459e+00
l1#branch = 0.000000e+00
ldo_out = 1.793220e+00
m.xm1.msky130_fd_pr__nfet_g5v0d10v5#body = 1.723506e-11
m.xm1.msky130_fd_pr__nfet_g5v0d10v5#dbody = 3.584603e-11
m.xm1.msky130_fd_pr__nfet_g5v0d10v5#sbody = 1.585914e-11
m.xm2.msky130_fd_pr__pfet_g5v0d10v5#body = 2.300000e+00
m.xm2.msky130_fd_pr__pfet_g5v0d10v5#dbody = 2.300000e+00
m.xm2.msky130_fd_pr__pfet_g5v0d10v5#sbody = 2.300000e+00
m.xm3.msky130_fd_pr__pfet_g5v0d10v5#body = 2.300000e+00
m.xm3.msky130_fd_pr__pfet_g5v0d10v5#dbody = 2.300000e+00
m.xm3.msky130_fd_pr__pfet_g5v0d10v5#sbody = 2.300000e+00
m.xm4.msky130_fd_pr__pfet_g5v0d10v5#body = 2.300000e+00
m.xm4.msky130_fd_pr__pfet_g5v0d10v5#dbody = 2.300000e+00
m.xm4.msky130_fd_pr__pfet_g5v0d10v5#sbody = 2.300000e+00
m.xm5.msky130_fd_pr__pfet_g5v0d10v5#body = 2.300000e+00
m.xm5.msky130_fd_pr__pfet_g5v0d10v5#dbody = 2.300000e+00
m.xm5.msky130_fd_pr__pfet_g5v0d10v5#sbody = 2.300000e+00
m.xm6.msky130_fd_pr__nfet_g5v0d10v5#body = 1.171277e-11
m.xm6.msky130_fd_pr__nfet_g5v0d10v5#dbody = 2.928192e-11
m.xm6.msky130_fd_pr__nfet_g5v0d10v5#sbody = 5.856390e-12
m.xm7.msky130_fd_pr__pfet_g5v0d10v5#body = 2.300000e+00
m.xm7.msky130_fd_pr__pfet_g5v0d10v5#dbody = 2.300000e+00
m.xm7.msky130_fd_pr__pfet_g5v0d10v5#sbody = 2.300000e+00
m.xm8.msky130_fd_pr__pfet_g5v0d10v5#body = 2.300000e+00
m.xm8.msky130_fd_pr__pfet_g5v0d10v5#dbody = 2.300000e+00
m.xm8.msky130_fd_pr__pfet_g5v0d10v5#sbody = 2.300000e+00
m.xm9.msky130_fd_pr__nfet_g5v0d10v5#body = 1.786824e-11
m.xm9.msky130_fd_pr__nfet_g5v0d10v5#dbody = 3.832395e-11
m.xm9.msky130_fd_pr__nfet_g5v0d10v5#sbody = 1.528078e-11
m.xm10.msky130_fd_pr__nfet_g5v0d10v5#body = 1.776973e-11
m.xm10.msky130_fd_pr__nfet_g5v0d10v5#dbody = 3.807767e-11
m.xm10.msky130_fd_pr__nfet_g5v0d10v5#sbody = 1.523152e-11
m.xm11.msky130_fd_pr__pfet_g5v0d10v5#body = 2.300000e+00
m.xm11.msky130_fd_pr__pfet_g5v0d10v5#dbody = 2.300000e+00
m.xm11.msky130_fd_pr__pfet_g5v0d10v5#sbody = 2.300000e+00
m.xm12.msky130_fd_pr__pfet_g5v0d10v5#body = 2.300000e+00
m.xm12.msky130_fd_pr__pfet_g5v0d10v5#dbody = 2.300000e+00
m.xm12.msky130_fd_pr__pfet_g5v0d10v5#sbody = 2.300000e+00
m.xm13.msky130_fd_pr__nfet_g5v0d10v5#body = 3.171971e-12
m.xm13.msky130_fd_pr__nfet_g5v0d10v5#dbody = 7.929916e-12
m.xm13.msky130_fd_pr__nfet_g5v0d10v5#sbody = 1.585995e-12
m.xm14.msky130_fd_pr__pfet_g5v0d10v5#body = 2.300000e+00
m.xm14.msky130_fd_pr__pfet_g5v0d10v5#dbody = 2.300000e+00
m.xm14.msky130_fd_pr__pfet_g5v0d10v5#sbody = 2.300000e+00
m.xm15.msky130_fd_pr__nfet_g5v0d10v5#body = 1.743821e-16
m.xm15.msky130_fd_pr__nfet_g5v0d10v5#dbody = 4.359436e-16
m.xm15.msky130_fd_pr__nfet_g5v0d10v5#sbody = 8.720261e-17
m.xm16.msky130_fd_pr__nfet_g5v0d10v5#body = 4.403973e-11
m.xm16.msky130_fd_pr__nfet_g5v0d10v5#dbody = 7.952856e-11
m.xm16.msky130_fd_pr__nfet_g5v0d10v5#sbody = 5.259065e-11
m.xm17.msky130_fd_pr__pfet_g5v0d10v5#body = 2.300000e+00
m.xm17.msky130_fd_pr__pfet_g5v0d10v5#dbody = 2.300000e+00
m.xm17.msky130_fd_pr__pfet_g5v0d10v5#sbody = 2.300000e+00
m.xm18.msky130_fd_pr__nfet_g5v0d10v5#body = 9.984238e-12
m.xm18.msky130_fd_pr__nfet_g5v0d10v5#dbody = 2.496058e-11
m.xm18.msky130_fd_pr__nfet_g5v0d10v5#sbody = 4.992130e-12
m.xm19.msky130_fd_pr__nfet_g5v0d10v5#body = 1.727161e-11
m.xm19.msky130_fd_pr__nfet_g5v0d10v5#dbody = 3.593742e-11
m.xm19.msky130_fd_pr__nfet_g5v0d10v5#sbody = 1.587741e-11
m.xm20.msky130_fd_pr__nfet_g5v0d10v5#body = 1.198249e-11
m.xm20.msky130_fd_pr__nfet_g5v0d10v5#dbody = 2.995622e-11
m.xm20.msky130_fd_pr__nfet_g5v0d10v5#sbody = 5.991258e-12
m.xm22.msky130_fd_pr__nfet_g5v0d10v5#body = 3.623517e-12
m.xm22.msky130_fd_pr__nfet_g5v0d10v5#dbody = 9.058787e-12
m.xm22.msky130_fd_pr__nfet_g5v0d10v5#sbody = 1.811763e-12
m.xm24.msky130_fd_pr__pfet_g5v0d10v5#body = 2.300000e+00
m.xm24.msky130_fd_pr__pfet_g5v0d10v5#dbody = 2.300000e+00
m.xm24.msky130_fd_pr__pfet_g5v0d10v5#sbody = 2.300000e+00
m.xm26.msky130_fd_pr__pfet_g5v0d10v5#body = 2.300000e+00
m.xm26.msky130_fd_pr__pfet_g5v0d10v5#dbody = 2.300000e+00
m.xm26.msky130_fd_pr__pfet_g5v0d10v5#sbody = 2.300000e+00
mir = 1.088793e+00
net1 = 7.251315e-01
net2 = 1.341738e-05
net3 = 7.846811e-01
net4 = 2.893166e-01
net5 = 1.091717e+00
net6 = 9.364568e-01
net7 = 7.846564e-01
net8 = 1.167473e+00
net9 = 1.175354e+00
net10 = 2.536271e-01
net11 = 7.986083e-01
net12 = 7.986083e-01
net13 = 0.000000e+00
out = 7.986083e-01
pos = 1.192670e+00
q.xq2.qsky130_fd_pr__pnp_05v5_w0p68l0p68#collcx = 2.094014e-03
q.xq3.qsky130_fd_pr__pnp_05v5_w0p68l0p68#collcx = 2.636880e-04
q.xq4.qsky130_fd_pr__pnp_05v5_w0p68l0p68#collcx = 2.636880e-04
q.xq8.qsky130_fd_pr__pnp_05v5_w0p68l0p68#collcx = 2.636880e-04
q.xq10.qsky130_fd_pr__pnp_05v5_w0p68l0p68#collcx = 2.636880e-04
q.xq12.qsky130_fd_pr__pnp_05v5_w0p68l0p68#collcx = 2.636880e-04
q.xq14.qsky130_fd_pr__pnp_05v5_w0p68l0p68#collcx = 2.636880e-04
q.xq16.qsky130_fd_pr__pnp_05v5_w0p68l0p68#collcx = 2.636880e-04
q.xq18.qsky130_fd_pr__pnp_05v5_w0p68l0p68#collcx = 2.636880e-04
vb = 9.584688e-01
vdd = 2.300000e+00
vs#branch = -9.97437e-02
vt#branch = 0.000000e+00
xc1.a = 0.000000e+00
xc1.b1 = 0.000000e+00
xc3.a = 7.986083e-01
xc3.b1 = 7.986083e-01
xr1.xsky130_fd_pr__res_xhigh_po_0p69.ra = 7.922040e-01
xr2.xsky130_fd_pr__res_xhigh_po_0p69.ra = 7.922287e-01
xr3.xsky130_fd_pr__res_xhigh_po_0p69.ra = 5.108775e-03
xr4.xsky130_fd_pr__res_xhigh_po_0p69.ra = 7.276690e-01
xr5.xsky130_fd_pr__res_xhigh_po_0p69.ra = 5.108604e-03
xr6.xsky130_fd_pr__res_xhigh_po_0p69.ra = 8.022810e-03
xr7.xsky130_fd_pr__res_xhigh_po_0p69.ra = 7.986083e-01
xr8.xsky130_fd_pr__res_xhigh_po_0p69.ra = 1.206017e+00
xr9.xsky130_fd_pr__res_xhigh_po_0p69.ra = 1.399800e-02
Doing analysis at TEMP = 27.000000 and TNOM = 27.000000


No. of Data Rows : 91
Note: Starting true gmin stepping
Trying gmin =   1.0000E-03 Note: One successful gmin step
Trying gmin =   1.0000E-04 Note: One successful gmin step
Trying gmin =   1.0000E-05 Note: One successful gmin step
Trying gmin =   1.0000E-06 Note: One successful gmin step
Trying gmin =   1.0000E-07 Note: One successful gmin step
Trying gmin =   1.0000E-08 Warning: Further gmin increment
Trying gmin =   5.6234E-08 Note: One successful gmin step
Trying gmin =   2.3714E-08 Warning: Further gmin increment
Trying gmin =   4.5316E-08 Warning: Further gmin increment
Trying gmin =   5.3280E-08 Note: One successful gmin step
Trying gmin =   4.9137E-08 Warning: Further gmin increment
Trying gmin =   5.2212E-08 Warning: Further gmin increment
Trying gmin =   5.3011E-08 Note: One successful gmin step
Trying gmin =   5.2610E-08 Note: One successful gmin step
Trying gmin =   5.2015E-08 Warning: Further gmin increment
Trying gmin =   5.2461E-08 Warning: Further gmin increment
Trying gmin =   5.2573E-08 Warning: Further gmin increment
Trying gmin =   5.2601E-08 Note: One successful gmin step
Trying gmin =   5.2587E-08 Note: One successful gmin step
Trying gmin =   5.2566E-08 Warning: Further gmin increment
Trying gmin =   5.2581E-08 Note: One successful gmin step
Trying gmin =   5.2574E-08 Warning: Further gmin increment
Trying gmin =   5.2580E-08 Warning: Last gmin step failed
Warning: True gmin stepping failed
Note: Starting dynamic gmin stepping
Trying gmin =   1.0000E-03 Note: One successful gmin step
Trying gmin =   1.0000E-04 Note: One successful gmin step
Trying gmin =   1.0000E-05 Note: One successful gmin step
Trying gmin =   1.0000E-06 Warning: Further gmin increment
Trying gmin =   5.6234E-06 Note: One successful gmin step
Trying gmin =   2.3714E-06 Note: One successful gmin step
Trying gmin =   6.4938E-07 Note: One successful gmin step
Trying gmin =   9.3057E-08 Warning: Further gmin increment
Trying gmin =   3.9954E-07 Note: One successful gmin step
Trying gmin =   1.9282E-07 Warning: Further gmin increment
Trying gmin =   3.3301E-07 Note: One successful gmin step
Trying gmin =   2.5340E-07 Note: One successful gmin step
Trying gmin =   1.6820E-07 Warning: Further gmin increment
Trying gmin =   2.2873E-07 Warning: Further gmin increment
Trying gmin =   2.4699E-07 Note: One successful gmin step
Trying gmin =   2.3768E-07 Warning: Further gmin increment
Trying gmin =   2.4463E-07 Note: One successful gmin step
Trying gmin =   2.4113E-07 Warning: Further gmin increment
Trying gmin =   2.4375E-07 Note: One successful gmin step
Trying gmin =   2.4244E-07 Warning: Further gmin increment
Trying gmin =   2.4342E-07 Note: One successful gmin step
Trying gmin =   2.4293E-07 Warning: Further gmin increment
Trying gmin =   2.4330E-07 Note: One successful gmin step
Trying gmin =   2.4312E-07 Note: One successful gmin step
Trying gmin =   2.4284E-07 Warning: Further gmin increment
Trying gmin =   2.4305E-07 Note: One successful gmin step
Trying gmin =   2.4294E-07 Warning: Further gmin increment
Trying gmin =   2.4302E-07 Note: One successful gmin step
Trying gmin =   2.4298E-07 Note: One successful gmin step
Trying gmin =   2.4292E-07 Warning: Further gmin increment
Trying gmin =   2.4297E-07 Warning: Further gmin increment
Trying gmin =   2.4298E-07 Note: One successful gmin step
Trying gmin =   2.4297E-07 Note: One successful gmin step
Trying gmin =   2.4296E-07 Warning: Last gmin step failed
Warning: Dynamic gmin stepping failed
Note: Starting source stepping
Supplies reduced to   0.0000% Note: One successful source step
Supplies reduced to   0.1000% Note: One successful source step
Supplies reduced to   0.2000% Note: One successful source step
Supplies reduced to   0.3500% Note: One successful source step
Supplies reduced to   0.5750% Note: One successful source step
Supplies reduced to   0.9125% Note: One successful source step
Supplies reduced to   1.4188% Note: One successful source step
Supplies reduced to   2.1781% Note: One successful source step
Supplies reduced to   3.3172% Note: One successful source step
Supplies reduced to   5.0258% Note: One successful source step
Supplies reduced to   7.5887% Note: One successful source step
Supplies reduced to  11.4330% Note: One successful source step
Supplies reduced to  17.1995% Note: One successful source step
Supplies reduced to  25.8493% Supplies reduced to  17.1995% Note: One successful source step
Supplies reduced to  18.1995% Note: One successful source step
Supplies reduced to  19.6995% Note: One successful source step
Supplies reduced to  21.9495% Note: One successful source step
Supplies reduced to  25.3245% Note: One successful source step
Supplies reduced to  28.6995% Note: One successful source step
Supplies reduced to  32.0745% Note: One successful source step
Supplies reduced to  37.1370% Note: One successful source step
Supplies reduced to  44.7308% Supplies reduced to  37.1370% Note: One successful source step
Supplies reduced to  38.1370% Note: One successful source step
Supplies reduced to  39.6370% Note: One successful source step
Supplies reduced to  41.8870% Note: One successful source step
Supplies reduced to  45.2620% Supplies reduced to  41.8870% Note: One successful source step
Supplies reduced to  42.3933% Note: One successful source step
Supplies reduced to  43.1526% Note: One successful source step
Supplies reduced to  43.9120% Note: One successful source step
Supplies reduced to  45.0511% Note: One successful source step
Supplies reduced to  46.7597% Note: One successful source step
Supplies reduced to  49.3226% Note: One successful source step
Supplies reduced to  53.1669% Note: One successful source step
Supplies reduced to  58.9334% Note: One successful source step
Supplies reduced to  67.5832% Note: One successful source step
Supplies reduced to  80.5578% Supplies reduced to  67.5832% Note: One successful source step
Supplies reduced to  68.5832% Note: One successful source step
Supplies reduced to  70.0832% Note: One successful source step
Supplies reduced to  72.3332% Supplies reduced to  70.0832% Note: One successful source step
Supplies reduced to  70.4207% Note: One successful source step
Supplies reduced to  70.9269% Note: One successful source step
Supplies reduced to  71.6863% Note: One successful source step
Supplies reduced to  72.8253% Supplies reduced to  71.6863% Note: One successful source step
Supplies reduced to  71.8571% Note: One successful source step
Supplies reduced to  72.1134% Note: One successful source step
Supplies reduced to  72.4979% Supplies reduced to  72.1134% Note: One successful source step
Supplies reduced to  72.1711% Supplies reduced to  72.1134% Note: One successful source step
Supplies reduced to  72.1221% Note: One successful source step
Supplies reduced to  72.1351% Note: One successful source step
Supplies reduced to  72.1545% Supplies reduced to  72.1351% Note: One successful source step
Supplies reduced to  72.1380% Note: One successful source step
Supplies reduced to  72.1424% Note: One successful source step
Supplies reduced to  72.1489% Supplies reduced to  72.1424% Note: One successful source step
Supplies reduced to  72.1433% Note: One successful source step
Supplies reduced to  72.1448% Note: One successful source step
Supplies reduced to  72.1470% Note: One successful source step
Supplies reduced to  72.1504% Supplies reduced to  72.1470% Note: One successful source step
Supplies reduced to  72.1475% Supplies reduced to  72.1470% Note: One successful source step
Supplies reduced to  72.1471% Note: One successful source step
Supplies reduced to  72.1472% Supplies reduced to  72.1471% Note: One successful source step
Supplies reduced to  72.1471% Note: One successful source step
Supplies reduced to  72.1471% Note: One successful source step
Supplies reduced to  72.1472% Warning: source stepping failed
doAnalyses: Too many iterations without convergence

dc simulation(s) aborted
Error(parse.c--checkvalid): vldo_sup_2_8: zero length vector.
Error: RHS "abs((vldo_sup_2_8-vldo_sup_2)/0.8)" invalid
Error(parse.c--checkvalid): line_reg: zero length vector.
Error(parse.c--checkvalid): vin: zero length vector.
Error: RHS "vin-1.764" invalid
Error(parse.c--checkvalid): dropout: zero length vector.
Error: no such vector dropout
Note: No ".plot", ".print", or ".fourier" lines; no simulations run
pm                  =  8.946562e+01
Doing analysis at TEMP = 27.000000 and TNOM = 27.000000


No. of Data Rows : 91
psrr100             =  -7.873662e+01
psrr100k            =  -2.390863e+01
Doing analysis at TEMP = 27.000000 and TNOM = 27.000000


No. of Data Rows : 86
temp_coeff = 9.731552e+01
Doing analysis at TEMP = 27.000000 and TNOM = 27.000000


Error: measure  vldo_sup_2  (AT) : out of interval
 meas dc vldo_sup_2 find ldo_out at=2 failed!


Error: measure  vldo_sup_2_8  (AT) : out of interval
 meas dc vldo_sup_2_8 find ldo_out at=2.8 failed!


Error: measure  vin  (WHEN) : out of interval
 meas dc vin when v(ldo_out)=1.764 failed!

