 Reference value :  0.00000e+00
No compatibility mode selected!


Circuit: * ldo netlist 

Doing analysis at TEMP = 85.000000 and TNOM = 27.000000


No. of Data Rows : 1
bg_out = 1.201121e+00
inn = 1.151071e+00
inp = 1.151029e+00
l1#branch = 0.000000e+00
ldo_out = 1.806725e+00
m.xm1.msky130_fd_pr__nfet_g5v0d10v5#body = 2.980181e-11
m.xm1.msky130_fd_pr__nfet_g5v0d10v5#dbody = 5.764743e-11
m.xm1.msky130_fd_pr__nfet_g5v0d10v5#sbody = 3.175799e-11
m.xm2.msky130_fd_pr__pfet_g5v0d10v5#body = 2.500000e+00
m.xm2.msky130_fd_pr__pfet_g5v0d10v5#dbody = 2.500000e+00
m.xm2.msky130_fd_pr__pfet_g5v0d10v5#sbody = 2.500000e+00
m.xm3.msky130_fd_pr__pfet_g5v0d10v5#body = 2.500000e+00
m.xm3.msky130_fd_pr__pfet_g5v0d10v5#dbody = 2.500000e+00
m.xm3.msky130_fd_pr__pfet_g5v0d10v5#sbody = 2.500000e+00
m.xm4.msky130_fd_pr__pfet_g5v0d10v5#body = 2.500000e+00
m.xm4.msky130_fd_pr__pfet_g5v0d10v5#dbody = 2.500000e+00
m.xm4.msky130_fd_pr__pfet_g5v0d10v5#sbody = 2.500000e+00
m.xm5.msky130_fd_pr__pfet_g5v0d10v5#body = 2.500000e+00
m.xm5.msky130_fd_pr__pfet_g5v0d10v5#dbody = 2.500000e+00
m.xm5.msky130_fd_pr__pfet_g5v0d10v5#sbody = 2.500000e+00
m.xm6.msky130_fd_pr__nfet_g5v0d10v5#body = 2.024910e-11
m.xm6.msky130_fd_pr__nfet_g5v0d10v5#dbody = 5.062265e-11
m.xm6.msky130_fd_pr__nfet_g5v0d10v5#sbody = 1.012466e-11
m.xm7.msky130_fd_pr__pfet_g5v0d10v5#body = 2.500000e+00
m.xm7.msky130_fd_pr__pfet_g5v0d10v5#dbody = 2.500000e+00
m.xm7.msky130_fd_pr__pfet_g5v0d10v5#sbody = 2.500000e+00
m.xm8.msky130_fd_pr__pfet_g5v0d10v5#body = 2.500000e+00
m.xm8.msky130_fd_pr__pfet_g5v0d10v5#dbody = 2.500000e+00
m.xm8.msky130_fd_pr__pfet_g5v0d10v5#sbody = 2.500000e+00
m.xm9.msky130_fd_pr__nfet_g5v0d10v5#body = 2.798461e-11
m.xm9.msky130_fd_pr__nfet_g5v0d10v5#dbody = 5.596471e-11
m.xm9.msky130_fd_pr__nfet_g5v0d10v5#sbody = 2.798911e-11
m.xm10.msky130_fd_pr__nfet_g5v0d10v5#body = 2.776779e-11
m.xm10.msky130_fd_pr__nfet_g5v0d10v5#dbody = 5.542265e-11
m.xm10.msky130_fd_pr__nfet_g5v0d10v5#sbody = 2.788070e-11
m.xm11.msky130_fd_pr__pfet_g5v0d10v5#body = 2.500000e+00
m.xm11.msky130_fd_pr__pfet_g5v0d10v5#dbody = 2.500000e+00
m.xm11.msky130_fd_pr__pfet_g5v0d10v5#sbody = 2.500000e+00
m.xm12.msky130_fd_pr__pfet_g5v0d10v5#body = 2.500000e+00
m.xm12.msky130_fd_pr__pfet_g5v0d10v5#dbody = 2.500000e+00
m.xm12.msky130_fd_pr__pfet_g5v0d10v5#sbody = 2.500000e+00
m.xm13.msky130_fd_pr__nfet_g5v0d10v5#body = 5.351184e-12
m.xm13.msky130_fd_pr__nfet_g5v0d10v5#dbody = 1.337790e-11
m.xm13.msky130_fd_pr__nfet_g5v0d10v5#sbody = 2.675656e-12
m.xm14.msky130_fd_pr__pfet_g5v0d10v5#body = 2.500000e+00
m.xm14.msky130_fd_pr__pfet_g5v0d10v5#dbody = 2.500000e+00
m.xm14.msky130_fd_pr__pfet_g5v0d10v5#sbody = 2.500000e+00
m.xm15.msky130_fd_pr__nfet_g5v0d10v5#body = 2.980407e-14
m.xm15.msky130_fd_pr__nfet_g5v0d10v5#dbody = 7.450882e-14
m.xm15.msky130_fd_pr__nfet_g5v0d10v5#sbody = 1.490339e-14
m.xm16.msky130_fd_pr__nfet_g5v0d10v5#body = 5.624471e-11
m.xm16.msky130_fd_pr__nfet_g5v0d10v5#dbody = 1.012287e-10
m.xm16.msky130_fd_pr__nfet_g5v0d10v5#sbody = 6.750545e-11
m.xm17.msky130_fd_pr__pfet_g5v0d10v5#body = 2.500000e+00
m.xm17.msky130_fd_pr__pfet_g5v0d10v5#dbody = 2.500000e+00
m.xm17.msky130_fd_pr__pfet_g5v0d10v5#sbody = 2.500000e+00
m.xm18.msky130_fd_pr__nfet_g5v0d10v5#body = 1.981388e-11
m.xm18.msky130_fd_pr__nfet_g5v0d10v5#dbody = 4.953284e-11
m.xm18.msky130_fd_pr__nfet_g5v0d10v5#sbody = 9.907017e-12
m.xm19.msky130_fd_pr__nfet_g5v0d10v5#body = 2.986681e-11
m.xm19.msky130_fd_pr__nfet_g5v0d10v5#dbody = 5.780994e-11
m.xm19.msky130_fd_pr__nfet_g5v0d10v5#sbody = 3.179049e-11
m.xm20.msky130_fd_pr__nfet_g5v0d10v5#body = 1.424564e-11
m.xm20.msky130_fd_pr__nfet_g5v0d10v5#dbody = 3.561402e-11
m.xm20.msky130_fd_pr__nfet_g5v0d10v5#sbody = 7.122891e-12
m.xm22.msky130_fd_pr__nfet_g5v0d10v5#body = 1.172236e-11
m.xm22.msky130_fd_pr__nfet_g5v0d10v5#dbody = 2.930581e-11
m.xm22.msky130_fd_pr__nfet_g5v0d10v5#sbody = 5.861285e-12
m.xm24.msky130_fd_pr__pfet_g5v0d10v5#body = 2.500000e+00
m.xm24.msky130_fd_pr__pfet_g5v0d10v5#dbody = 2.500000e+00
m.xm24.msky130_fd_pr__pfet_g5v0d10v5#sbody = 2.500000e+00
m.xm26.msky130_fd_pr__pfet_g5v0d10v5#body = 2.500000e+00
m.xm26.msky130_fd_pr__pfet_g5v0d10v5#dbody = 2.500000e+00
m.xm26.msky130_fd_pr__pfet_g5v0d10v5#sbody = 2.500000e+00
mir = 1.285608e+00
net1 = 6.354325e-01
net2 = 5.748241e-05
net3 = 7.082547e-01
net4 = 2.502587e-01
net5 = 1.290809e+00
net6 = 9.320273e-01
net7 = 7.082121e-01
net8 = 1.369119e+00
net9 = 1.386465e+00
net10 = 2.675348e-01
net11 = 1.424427e+00
net12 = 1.424427e+00
net13 = 0.000000e+00
out = 1.424427e+00
pos = 1.201302e+00
q.xq2.qsky130_fd_pr__pnp_05v5_w0p68l0p68#collcx = 2.689474e-03
q.xq3.qsky130_fd_pr__pnp_05v5_w0p68l0p68#collcx = 3.418679e-04
q.xq4.qsky130_fd_pr__pnp_05v5_w0p68l0p68#collcx = 3.418679e-04
q.xq8.qsky130_fd_pr__pnp_05v5_w0p68l0p68#collcx = 3.418679e-04
q.xq10.qsky130_fd_pr__pnp_05v5_w0p68l0p68#collcx = 3.418679e-04
q.xq12.qsky130_fd_pr__pnp_05v5_w0p68l0p68#collcx = 3.418679e-04
q.xq14.qsky130_fd_pr__pnp_05v5_w0p68l0p68#collcx = 3.418679e-04
q.xq16.qsky130_fd_pr__pnp_05v5_w0p68l0p68#collcx = 3.418679e-04
q.xq18.qsky130_fd_pr__pnp_05v5_w0p68l0p68#collcx = 3.418679e-04
vb = 9.790392e-01
vdd = 2.500000e+00
vs#branch = -1.01694e-02
vt#branch = 0.000000e+00
xc1.a = 0.000000e+00
xc1.b1 = 0.000000e+00
xc3.a = 1.424427e+00
xc3.b1 = 1.424427e+00
xr1.xsky130_fd_pr__res_xhigh_po_0p69.ra = 7.164667e-01
xr2.xsky130_fd_pr__res_xhigh_po_0p69.ra = 7.165093e-01
xr3.xsky130_fd_pr__res_xhigh_po_0p69.ra = 4.957199e-03
xr4.xsky130_fd_pr__res_xhigh_po_0p69.ra = 6.387792e-01
xr5.xsky130_fd_pr__res_xhigh_po_0p69.ra = 4.956884e-03
xr6.xsky130_fd_pr__res_xhigh_po_0p69.ra = 8.747170e-03
xr7.xsky130_fd_pr__res_xhigh_po_0p69.ra = 1.424427e+00
xr8.xsky130_fd_pr__res_xhigh_po_0p69.ra = 1.215847e+00
xr9.xsky130_fd_pr__res_xhigh_po_0p69.ra = 1.525690e-02
Doing analysis at TEMP = 85.000000 and TNOM = 27.000000


No. of Data Rows : 91
Note: Starting true gmin stepping
Trying gmin =   1.0000E-03 Note: One successful gmin step
Trying gmin =   1.0000E-04 Note: One successful gmin step
Trying gmin =   1.0000E-05 Note: One successful gmin step
Trying gmin =   1.0000E-06 Note: One successful gmin step
Trying gmin =   1.0000E-07 Note: One successful gmin step
Trying gmin =   1.0000E-08 Warning: Further gmin increment
Trying gmin =   5.6234E-08 Warning: Further gmin increment
Trying gmin =   8.6596E-08 Note: One successful gmin step
Trying gmin =   6.9783E-08 Warning: Further gmin increment
Trying gmin =   8.2047E-08 Warning: Further gmin increment
Trying gmin =   8.5436E-08 Note: One successful gmin step
Trying gmin =   8.3724E-08 Note: One successful gmin step
Trying gmin =   8.1221E-08 Warning: Further gmin increment
Trying gmin =   8.3091E-08 Warning: Further gmin increment
Trying gmin =   8.3566E-08 Note: One successful gmin step
Trying gmin =   8.3328E-08 Note: One successful gmin step
Trying gmin =   8.2973E-08 Warning: Further gmin increment
Trying gmin =   8.3239E-08 Note: One successful gmin step
Trying gmin =   8.3106E-08 Warning: Further gmin increment
Trying gmin =   8.3206E-08 Note: One successful gmin step
Trying gmin =   8.3156E-08 Note: One successful gmin step
Trying gmin =   8.3081E-08 Warning: Further gmin increment
Trying gmin =   8.3137E-08 Note: One successful gmin step
Trying gmin =   8.3109E-08 Warning: Further gmin increment
Trying gmin =   8.3130E-08 Note: One successful gmin step
Trying gmin =   8.3120E-08 Note: One successful gmin step
Trying gmin =   8.3104E-08 Warning: Further gmin increment
Trying gmin =   8.3116E-08 Note: One successful gmin step
Trying gmin =   8.3110E-08 Warning: Further gmin increment
Trying gmin =   8.3114E-08 Warning: Last gmin step failed
Warning: True gmin stepping failed
Note: Starting dynamic gmin stepping
Trying gmin =   1.0000E-03 Note: One successful gmin step
Trying gmin =   1.0000E-04 Note: One successful gmin step
Trying gmin =   1.0000E-05 Note: One successful gmin step
Trying gmin =   1.0000E-06 Note: One successful gmin step
Trying gmin =   1.0000E-07 Note: One successful gmin step
Trying gmin =   1.0000E-08 Note: One successful gmin step
Trying gmin =   1.0000E-09 Note: One successful gmin step
Trying gmin =   1.0000E-10 Note: One successful gmin step
Trying gmin =   1.0000E-11 Note: One successful gmin step
Trying gmin =   1.0000E-12 Note: One successful gmin step
Trying gmin =   1.0000E-12 Note: One successful gmin step
Note: Dynamic gmin stepping completed
 Reference value :  2.80000e+00Note: Starting true gmin stepping
Trying gmin =   1.0000E-03 Note: One successful gmin step
Trying gmin =   1.0000E-04 Note: One successful gmin step
Trying gmin =   1.0000E-05 Note: One successful gmin step
Trying gmin =   1.0000E-06 Note: One successful gmin step
Trying gmin =   1.0000E-07 Note: One successful gmin step
Trying gmin =   1.0000E-08 Warning: Further gmin increment
Trying gmin =   5.6234E-08 Note: One successful gmin step
Trying gmin =   2.3714E-08 Note: One successful gmin step
Trying gmin =   6.4938E-09 Warning: Further gmin increment
Trying gmin =   1.7154E-08 Note: One successful gmin step
Trying gmin =   1.0554E-08 Note: One successful gmin step
Trying gmin =   5.0937E-09 Note: One successful gmin step
Trying gmin =   1.7077E-09 Warning: Further gmin increment
Trying gmin =   3.8760E-09 Note: One successful gmin step
Trying gmin =   2.5728E-09 Note: One successful gmin step
Trying gmin =   1.3913E-09 Note: One successful gmin step
Trying gmin =   5.5333E-10 Note: One successful gmin step
Trying gmin =   1.3877E-10 Note: One successful gmin step
Trying gmin =   1.7430E-11 Note: One successful gmin step
Trying gmin =   1.7430E-12 Note: One successful gmin step
Trying gmin =   1.0000E-12 Note: One successful gmin step
Note: True gmin stepping completed
 Reference value :  1.30000e+00Note: Starting true gmin stepping
Trying gmin =   1.0000E-03 Note: One successful gmin step
Trying gmin =   1.0000E-04 Note: One successful gmin step
Trying gmin =   1.0000E-05 Note: One successful gmin step
Trying gmin =   1.0000E-06 Note: One successful gmin step
Trying gmin =   1.0000E-07 Note: One successful gmin step
Trying gmin =   1.0000E-08 Warning: Further gmin increment
Trying gmin =   5.6234E-08 Note: One successful gmin step
Trying gmin =   2.3714E-08 Note: One successful gmin step
Trying gmin =   6.4938E-09 Warning: Further gmin increment
Trying gmin =   1.7154E-08 Note: One successful gmin step
Trying gmin =   1.0554E-08 Note: One successful gmin step
Trying gmin =   5.0937E-09 Warning: Further gmin increment
Trying gmin =   8.7970E-09 Note: One successful gmin step
Trying gmin =   6.6940E-09 Note: One successful gmin step
Trying gmin =   4.4433E-09 Note: One successful gmin step
Trying gmin =   2.4029E-09 Warning: Further gmin increment
Trying gmin =   3.8103E-09 Note: One successful gmin step
Trying gmin =   3.0259E-09 Note: One successful gmin step
Trying gmin =   2.1413E-09 Note: One successful gmin step
Trying gmin =   1.2748E-09 Note: One successful gmin step
Trying gmin =   5.8553E-10 Note: One successful gmin step
Trying gmin =   1.8227E-10 Note: One successful gmin step
Trying gmin =   3.1659E-11 Note: One successful gmin step
Trying gmin =   3.1659E-12 Note: One successful gmin step
Trying gmin =   1.0000E-12 Note: One successful gmin step
Note: True gmin stepping completed
 Reference value :  1.28000e+00pm                  =  -8.082330e+01
Doing analysis at TEMP = 85.000000 and TNOM = 27.000000


No. of Data Rows : 91
psrr100             =  -5.325863e+01
psrr100k            =  -2.624034e+01
Doing analysis at TEMP = 85.000000 and TNOM = 27.000000


No. of Data Rows : 86
temp_coeff = 1.228425e+02
Doing analysis at TEMP = 85.000000 and TNOM = 27.000000


No. of Data Rows : 141
vldo_sup_2          =  1.804860e+00
vldo_sup_2_8        =  1.807257e+00
line_reg = 2.996250e-03
Note: No ".plot", ".print", or ".fourier" lines; no simulations run
vin                 =  1.787159e+00
dropout = 2.315900e-02
