 Reference value :  0.00000e+00
No compatibility mode selected!


Circuit: * ldo netlist 

Doing analysis at TEMP = 0.000000 and TNOM = 27.000000


No. of Data Rows : 1
bg_out = 5.735469e-01
inn = 7.921706e-01
inp = 7.917792e-01
l1#branch = -2.77556e-17
ldo_out = 9.467027e-01
m.xm1.msky130_fd_pr__nfet_g5v0d10v5#body = 1.585463e-11
m.xm1.msky130_fd_pr__nfet_g5v0d10v5#dbody = 3.859800e-11
m.xm1.msky130_fd_pr__nfet_g5v0d10v5#sbody = 8.965855e-12
m.xm2.msky130_fd_pr__pfet_g5v0d10v5#body = 2.500000e+00
m.xm2.msky130_fd_pr__pfet_g5v0d10v5#dbody = 2.500000e+00
m.xm2.msky130_fd_pr__pfet_g5v0d10v5#sbody = 2.500000e+00
m.xm3.msky130_fd_pr__pfet_g5v0d10v5#body = 2.500000e+00
m.xm3.msky130_fd_pr__pfet_g5v0d10v5#dbody = 2.500000e+00
m.xm3.msky130_fd_pr__pfet_g5v0d10v5#sbody = 2.500000e+00
m.xm4.msky130_fd_pr__pfet_g5v0d10v5#body = 2.500000e+00
m.xm4.msky130_fd_pr__pfet_g5v0d10v5#dbody = 2.500000e+00
m.xm4.msky130_fd_pr__pfet_g5v0d10v5#sbody = 2.500000e+00
m.xm5.msky130_fd_pr__pfet_g5v0d10v5#body = 2.500000e+00
m.xm5.msky130_fd_pr__pfet_g5v0d10v5#dbody = 2.500000e+00
m.xm5.msky130_fd_pr__pfet_g5v0d10v5#sbody = 2.500000e+00
m.xm6.msky130_fd_pr__nfet_g5v0d10v5#body = 1.079303e-11
m.xm6.msky130_fd_pr__nfet_g5v0d10v5#dbody = 2.698258e-11
m.xm6.msky130_fd_pr__nfet_g5v0d10v5#sbody = 5.396519e-12
m.xm7.msky130_fd_pr__pfet_g5v0d10v5#body = 2.500000e+00
m.xm7.msky130_fd_pr__pfet_g5v0d10v5#dbody = 2.500000e+00
m.xm7.msky130_fd_pr__pfet_g5v0d10v5#sbody = 2.500000e+00
m.xm8.msky130_fd_pr__pfet_g5v0d10v5#body = 2.500000e+00
m.xm8.msky130_fd_pr__pfet_g5v0d10v5#dbody = 2.500000e+00
m.xm8.msky130_fd_pr__pfet_g5v0d10v5#sbody = 2.500000e+00
m.xm9.msky130_fd_pr__nfet_g5v0d10v5#body = 1.875407e-11
m.xm9.msky130_fd_pr__nfet_g5v0d10v5#dbody = 4.685302e-11
m.xm9.msky130_fd_pr__nfet_g5v0d10v5#sbody = 9.408491e-12
m.xm10.msky130_fd_pr__nfet_g5v0d10v5#body = 1.596771e-11
m.xm10.msky130_fd_pr__nfet_g5v0d10v5#dbody = 3.988781e-11
m.xm10.msky130_fd_pr__nfet_g5v0d10v5#sbody = 8.015314e-12
m.xm11.msky130_fd_pr__pfet_g5v0d10v5#body = 2.500000e+00
m.xm11.msky130_fd_pr__pfet_g5v0d10v5#dbody = 2.500000e+00
m.xm11.msky130_fd_pr__pfet_g5v0d10v5#sbody = 2.500000e+00
m.xm12.msky130_fd_pr__pfet_g5v0d10v5#body = 2.500000e+00
m.xm12.msky130_fd_pr__pfet_g5v0d10v5#dbody = 2.500000e+00
m.xm12.msky130_fd_pr__pfet_g5v0d10v5#sbody = 2.500000e+00
m.xm13.msky130_fd_pr__nfet_g5v0d10v5#body = 1.572787e-14
m.xm13.msky130_fd_pr__nfet_g5v0d10v5#dbody = 3.931957e-14
m.xm13.msky130_fd_pr__nfet_g5v0d10v5#sbody = 7.864034e-15
m.xm14.msky130_fd_pr__pfet_g5v0d10v5#body = 2.500000e+00
m.xm14.msky130_fd_pr__pfet_g5v0d10v5#dbody = 2.500000e+00
m.xm14.msky130_fd_pr__pfet_g5v0d10v5#sbody = 2.500000e+00
m.xm15.msky130_fd_pr__nfet_g5v0d10v5#body = 9.663306e-12
m.xm15.msky130_fd_pr__nfet_g5v0d10v5#dbody = 2.415827e-11
m.xm15.msky130_fd_pr__nfet_g5v0d10v5#sbody = 4.831653e-12
m.xm16.msky130_fd_pr__nfet_g5v0d10v5#body = 4.115225e-11
m.xm16.msky130_fd_pr__nfet_g5v0d10v5#dbody = 8.307624e-11
m.xm16.msky130_fd_pr__nfet_g5v0d10v5#sbody = 4.038051e-11
m.xm17.msky130_fd_pr__pfet_g5v0d10v5#body = 2.500000e+00
m.xm17.msky130_fd_pr__pfet_g5v0d10v5#dbody = 2.500000e+00
m.xm17.msky130_fd_pr__pfet_g5v0d10v5#sbody = 2.500000e+00
m.xm18.msky130_fd_pr__nfet_g5v0d10v5#body = 1.990756e-11
m.xm18.msky130_fd_pr__nfet_g5v0d10v5#dbody = 4.966607e-11
m.xm18.msky130_fd_pr__nfet_g5v0d10v5#sbody = 9.953784e-12
m.xm19.msky130_fd_pr__nfet_g5v0d10v5#body = 1.653303e-11
m.xm19.msky130_fd_pr__nfet_g5v0d10v5#dbody = 4.029389e-11
m.xm19.msky130_fd_pr__nfet_g5v0d10v5#sbody = 9.305054e-12
m.xm20.msky130_fd_pr__nfet_g5v0d10v5#body = 1.074287e-11
m.xm20.msky130_fd_pr__nfet_g5v0d10v5#dbody = 2.685718e-11
m.xm20.msky130_fd_pr__nfet_g5v0d10v5#sbody = 5.371443e-12
m.xm22.msky130_fd_pr__nfet_g5v0d10v5#body = 5.192999e-13
m.xm22.msky130_fd_pr__nfet_g5v0d10v5#dbody = 1.298248e-12
m.xm22.msky130_fd_pr__nfet_g5v0d10v5#sbody = 2.596512e-13
m.xm24.msky130_fd_pr__pfet_g5v0d10v5#body = 2.500000e+00
m.xm24.msky130_fd_pr__pfet_g5v0d10v5#dbody = 2.500000e+00
m.xm24.msky130_fd_pr__pfet_g5v0d10v5#sbody = 2.500000e+00
m.xm26.msky130_fd_pr__pfet_g5v0d10v5#body = 2.500000e+00
m.xm26.msky130_fd_pr__pfet_g5v0d10v5#dbody = 2.500000e+00
m.xm26.msky130_fd_pr__pfet_g5v0d10v5#sbody = 2.500000e+00
mir = 1.226823e+00
net1 = 6.073847e-01
net2 = 7.730495e-01
net3 = 6.078515e-01
net4 = 4.153783e-02
net5 = 1.281091e+00
net6 = 8.634350e-01
net7 = 6.074565e-01
net8 = 1.276155e+00
net9 = 1.499036e+00
net10 = 1.258145e-03
net11 = 1.588490e+00
net12 = 1.588490e+00
net13 = 0.000000e+00
out = 1.588490e+00
pos = 5.761279e-01
q.xq2.qsky130_fd_pr__pnp_05v5_w0p68l0p68#collcx = 3.041456e-07
q.xq3.qsky130_fd_pr__pnp_05v5_w0p68l0p68#collcx = 2.983678e-07
q.xq4.qsky130_fd_pr__pnp_05v5_w0p68l0p68#collcx = 2.983678e-07
q.xq8.qsky130_fd_pr__pnp_05v5_w0p68l0p68#collcx = 2.983678e-07
q.xq10.qsky130_fd_pr__pnp_05v5_w0p68l0p68#collcx = 2.983678e-07
q.xq12.qsky130_fd_pr__pnp_05v5_w0p68l0p68#collcx = 2.983678e-07
q.xq14.qsky130_fd_pr__pnp_05v5_w0p68l0p68#collcx = 2.983678e-07
q.xq16.qsky130_fd_pr__pnp_05v5_w0p68l0p68#collcx = 2.983678e-07
q.xq18.qsky130_fd_pr__pnp_05v5_w0p68l0p68#collcx = 2.983678e-07
vb = 8.594281e-01
vdd = 2.500000e+00
vs#branch = -8.30331e-05
vt#branch = 0.000000e+00
xc1.a = 0.000000e+00
xc1.b1 = 0.000000e+00
xc3.a = 1.588490e+00
xc3.b1 = 1.588490e+00
xr1.xsky130_fd_pr__res_xhigh_po_0p69.ra = 6.101566e-01
xr2.xsky130_fd_pr__res_xhigh_po_0p69.ra = 6.105516e-01
xr3.xsky130_fd_pr__res_xhigh_po_0p69.ra = 2.770218e-03
xr4.xsky130_fd_pr__res_xhigh_po_0p69.ra = 6.073868e-01
xr5.xsky130_fd_pr__res_xhigh_po_0p69.ra = 2.768331e-03
xr6.xsky130_fd_pr__res_xhigh_po_0p69.ra = 2.792076e-03
xr7.xsky130_fd_pr__res_xhigh_po_0p69.ra = 1.588490e+00
xr8.xsky130_fd_pr__res_xhigh_po_0p69.ra = 5.804649e-01
xr9.xsky130_fd_pr__res_xhigh_po_0p69.ra = 4.400410e-03
Doing analysis at TEMP = 0.000000 and TNOM = 27.000000


No. of Data Rows : 91
Note: Starting true gmin stepping
Trying gmin =   1.0000E-03 Note: One successful gmin step
Trying gmin =   1.0000E-04 Note: One successful gmin step
Trying gmin =   1.0000E-05 Note: One successful gmin step
Trying gmin =   1.0000E-06 Note: One successful gmin step
Trying gmin =   1.0000E-07 Note: One successful gmin step
Trying gmin =   1.0000E-08 Warning: Further gmin increment
Trying gmin =   5.6234E-08 Note: One successful gmin step
Trying gmin =   2.3714E-08 Warning: Further gmin increment
Trying gmin =   4.5316E-08 Note: One successful gmin step
Trying gmin =   3.2781E-08 Warning: Further gmin increment
Trying gmin =   4.1792E-08 Warning: Further gmin increment
Trying gmin =   4.4408E-08 Note: One successful gmin step
Trying gmin =   4.3080E-08 Warning: Further gmin increment
Trying gmin =   4.4072E-08 Note: One successful gmin step
Trying gmin =   4.3573E-08 Note: One successful gmin step
Trying gmin =   4.2836E-08 Warning: Further gmin increment
Trying gmin =   4.3388E-08 Warning: Further gmin increment
Trying gmin =   4.3527E-08 Warning: Further gmin increment
Trying gmin =   4.3562E-08 Warning: Further gmin increment
Trying gmin =   4.3570E-08 Note: One successful gmin step
Trying gmin =   4.3566E-08 Warning: Further gmin increment
Trying gmin =   4.3569E-08 Note: One successful gmin step
Trying gmin =   4.3568E-08 Warning: Last gmin step failed
Warning: True gmin stepping failed
Note: Starting dynamic gmin stepping
Trying gmin =   1.0000E-03 Note: One successful gmin step
Trying gmin =   1.0000E-04 Note: One successful gmin step
Trying gmin =   1.0000E-05 Note: One successful gmin step
Trying gmin =   1.0000E-06 Warning: Further gmin increment
Trying gmin =   5.6234E-06 Note: One successful gmin step
Trying gmin =   3.1623E-06 Note: One successful gmin step
Trying gmin =   1.3335E-06 Warning: Further gmin increment
Trying gmin =   2.5483E-06 Note: One successful gmin step
Trying gmin =   1.8434E-06 Note: One successful gmin step
Trying gmin =   1.1342E-06 Warning: Further gmin increment
Trying gmin =   1.6326E-06 Note: One successful gmin step
Trying gmin =   1.3608E-06 Warning: Further gmin increment
Trying gmin =   1.5600E-06 Note: One successful gmin step
Trying gmin =   1.4570E-06 Note: One successful gmin step
Trying gmin =   1.3151E-06 Warning: Further gmin increment
Trying gmin =   1.4201E-06 Note: One successful gmin step
Trying gmin =   1.3666E-06 Warning: Further gmin increment
Trying gmin =   1.4066E-06 Note: One successful gmin step
Trying gmin =   1.3864E-06 Note: One successful gmin step
Trying gmin =   1.3568E-06 Warning: Further gmin increment
Trying gmin =   1.3790E-06 Warning: Further gmin increment
Trying gmin =   1.3846E-06 Note: One successful gmin step
Trying gmin =   1.3818E-06 Note: One successful gmin step
Trying gmin =   1.3776E-06 Note: One successful gmin step
Trying gmin =   1.3713E-06 Note: One successful gmin step
Trying gmin =   1.3620E-06 Note: One successful gmin step
Trying gmin =   1.3481E-06 Note: One successful gmin step
Trying gmin =   1.3275E-06 Note: One successful gmin step
Trying gmin =   1.2972E-06 Note: One successful gmin step
Trying gmin =   1.2531E-06 Note: One successful gmin step
Trying gmin =   1.1897E-06 Note: One successful gmin step
Trying gmin =   1.1005E-06 Note: One successful gmin step
Trying gmin =   9.7916E-07 Note: One successful gmin step
Trying gmin =   8.2176E-07 Note: One successful gmin step
Trying gmin =   6.3180E-07 Note: One successful gmin step
Trying gmin =   4.2593E-07 Note: One successful gmin step
Trying gmin =   2.3576E-07 Note: One successful gmin step
Trying gmin =   9.7088E-08 Note: One successful gmin step
Trying gmin =   2.5657E-08 Note: One successful gmin step
Trying gmin =   3.4856E-09 Note: One successful gmin step
Trying gmin =   3.4856E-10 Note: One successful gmin step
Trying gmin =   3.4856E-11 Note: One successful gmin step
Trying gmin =   3.4856E-12 Note: One successful gmin step
Trying gmin =   1.0000E-12 Note: One successful gmin step
Note: Dynamic gmin stepping completed
 Reference value :  2.80000e+00Note: Starting true gmin stepping
Trying gmin =   1.0000E-03 Note: One successful gmin step
Trying gmin =   1.0000E-04 Note: One successful gmin step
Trying gmin =   1.0000E-05 Note: One successful gmin step
Trying gmin =   1.0000E-06 Note: One successful gmin step
Trying gmin =   1.0000E-07 Note: One successful gmin step
Trying gmin =   1.0000E-08 Warning: Further gmin increment
Trying gmin =   5.6234E-08 Note: One successful gmin step
Trying gmin =   3.1623E-08 Note: One successful gmin step
Trying gmin =   1.7783E-08 Note: One successful gmin step
Trying gmin =   7.4989E-09 Note: One successful gmin step
Trying gmin =   2.0535E-09 Note: One successful gmin step
Trying gmin =   2.9427E-10 Note: One successful gmin step
Trying gmin =   2.9427E-11 Note: One successful gmin step
Trying gmin =   2.9427E-12 Note: One successful gmin step
Trying gmin =   1.0000E-12 Note: One successful gmin step
Note: True gmin stepping completed
Note: Starting true gmin stepping
Trying gmin =   1.0000E-03 Note: One successful gmin step
Trying gmin =   1.0000E-04 Note: One successful gmin step
Trying gmin =   1.0000E-05 Note: One successful gmin step
Trying gmin =   1.0000E-06 Note: One successful gmin step
Trying gmin =   1.0000E-07 Note: One successful gmin step
Trying gmin =   1.0000E-08 Warning: Further gmin increment
Trying gmin =   5.6234E-08 Note: One successful gmin step
Trying gmin =   3.1623E-08 Warning: Further gmin increment
Trying gmin =   4.8697E-08 Note: One successful gmin step
Trying gmin =   3.9242E-08 Note: One successful gmin step
Trying gmin =   2.8387E-08 Note: One successful gmin step
Trying gmin =   1.7466E-08 Note: One successful gmin step
Trying gmin =   8.4291E-09 Note: One successful gmin step
Trying gmin =   2.8260E-09 Note: One successful gmin step
Trying gmin =   5.4860E-10 Note: One successful gmin step
Trying gmin =   5.4860E-11 Note: One successful gmin step
Trying gmin =   5.4860E-12 Note: One successful gmin step
Trying gmin =   1.0000E-12 Note: One successful gmin step
Note: True gmin stepping completed
 Reference value :  1.54000e+00Note: Starting true gmin stepping
Trying gmin =   1.0000E-03 Note: One successful gmin step
Trying gmin =   1.0000E-04 Note: One successful gmin step
Trying gmin =   1.0000E-05 Note: One successful gmin step
Trying gmin =   1.0000E-06 Note: One successful gmin step
Trying gmin =   1.0000E-07 Note: One successful gmin step
Trying gmin =   1.0000E-08 Note: One successful gmin step
Trying gmin =   1.0000E-09 Note: One successful gmin step
Trying gmin =   1.0000E-10 Note: One successful gmin step
Trying gmin =   3.1623E-11 Note: One successful gmin step
Trying gmin =   5.6234E-12 Note: One successful gmin step
Trying gmin =   1.0000E-12 Note: One successful gmin step
Note: True gmin stepping completed
Note: Starting true gmin stepping
Trying gmin =   1.0000E-03 Note: One successful gmin step
Trying gmin =   1.0000E-04 Note: One successful gmin step
Trying gmin =   1.0000E-05 Note: One successful gmin step
Trying gmin =   1.0000E-06 Note: One successful gmin step
Trying gmin =   1.0000E-07 Note: One successful gmin step
Trying gmin =   1.0000E-08 Note: One successful gmin step
Trying gmin =   1.0000E-09 Note: One successful gmin step
Trying gmin =   1.0000E-10 Note: One successful gmin step
Trying gmin =   1.0000E-11 Note: One successful gmin step
Trying gmin =   1.0000E-12 Warning: Further gmin increment
Trying gmin =   5.6234E-12 Note: One successful gmin step
Trying gmin =   2.3714E-12 Note: One successful gmin step
Trying gmin =   1.0000E-12 Warning: Further gmin increment
Trying gmin =   1.9110E-12 Note: One successful gmin step
Trying gmin =   1.3824E-12 Note: One successful gmin step
Trying gmin =   1.0000E-12 Warning: Further gmin increment
Trying gmin =   1.2749E-12 Note: One successful gmin step
Trying gmin =   1.1291E-12 Note: One successful gmin step
Trying gmin =   1.0000E-12 Note: One successful gmin step
Warning: True gmin stepping failed
Note: Starting dynamic gmin stepping
Trying gmin =   1.0000E-03 Note: One successful gmin step
Trying gmin =   1.0000E-04 Note: One successful gmin step
Trying gmin =   1.0000E-05 Note: One successful gmin step
Trying gmin =   1.0000E-06 Note: One successful gmin step
Trying gmin =   1.0000E-07 Note: One successful gmin step
Trying gmin =   1.0000E-08 Note: One successful gmin step
Trying gmin =   1.0000E-09 Note: One successful gmin step
Trying gmin =   1.0000E-10 Note: One successful gmin step
Trying gmin =   1.0000E-11 Note: One successful gmin step
Trying gmin =   1.0000E-12 Note: One successful gmin step
Trying gmin =   1.0000E-12 Note: One successful gmin step
Note: Dynamic gmin stepping completed
 Reference value :  4.00000e-02pm                  =  6.082994e+01
Doing analysis at TEMP = 0.000000 and TNOM = 27.000000


No. of Data Rows : 91
psrr100             =  -3.605549e+01
psrr100k            =  -3.691252e+00
Doing analysis at TEMP = 0.000000 and TNOM = 27.000000


No. of Data Rows : 86
temp_coeff = 4.910166e+01
Doing analysis at TEMP = 0.000000 and TNOM = 27.000000


No. of Data Rows : 141
vldo_sup_2          =  1.805325e+00
vldo_sup_2_8        =  1.804440e+00
line_reg = 1.106250e-03
Note: No ".plot", ".print", or ".fourier" lines; no simulations run
vin                 =  1.764152e+00
dropout = 1.520000e-04
