 Reference value :  0.00000e+00
No compatibility mode selected!


Circuit: * ldo netlist 

Doing analysis at TEMP = 0.000000 and TNOM = 27.000000


No. of Data Rows : 1
bg_out = 6.048191e-01
inn = 8.190741e-01
inp = 8.188020e-01
l1#branch = 6.938894e-18
ldo_out = 9.130945e-01
m.xm1.msky130_fd_pr__nfet_g5v0d10v5#body = 1.604840e-11
m.xm1.msky130_fd_pr__nfet_g5v0d10v5#dbody = 3.874394e-11
m.xm1.msky130_fd_pr__nfet_g5v0d10v5#sbody = 9.401236e-12
m.xm2.msky130_fd_pr__pfet_g5v0d10v5#body = 2.500000e+00
m.xm2.msky130_fd_pr__pfet_g5v0d10v5#dbody = 2.500000e+00
m.xm2.msky130_fd_pr__pfet_g5v0d10v5#sbody = 2.500000e+00
m.xm3.msky130_fd_pr__pfet_g5v0d10v5#body = 2.500000e+00
m.xm3.msky130_fd_pr__pfet_g5v0d10v5#dbody = 2.500000e+00
m.xm3.msky130_fd_pr__pfet_g5v0d10v5#sbody = 2.500000e+00
m.xm4.msky130_fd_pr__pfet_g5v0d10v5#body = 2.500000e+00
m.xm4.msky130_fd_pr__pfet_g5v0d10v5#dbody = 2.500000e+00
m.xm4.msky130_fd_pr__pfet_g5v0d10v5#sbody = 2.500000e+00
m.xm5.msky130_fd_pr__pfet_g5v0d10v5#body = 2.500000e+00
m.xm5.msky130_fd_pr__pfet_g5v0d10v5#dbody = 2.500000e+00
m.xm5.msky130_fd_pr__pfet_g5v0d10v5#sbody = 2.500000e+00
m.xm6.msky130_fd_pr__nfet_g5v0d10v5#body = 1.077673e-11
m.xm6.msky130_fd_pr__nfet_g5v0d10v5#dbody = 2.694182e-11
m.xm6.msky130_fd_pr__nfet_g5v0d10v5#sbody = 5.388366e-12
m.xm7.msky130_fd_pr__pfet_g5v0d10v5#body = 2.500000e+00
m.xm7.msky130_fd_pr__pfet_g5v0d10v5#dbody = 2.500000e+00
m.xm7.msky130_fd_pr__pfet_g5v0d10v5#sbody = 2.500000e+00
m.xm8.msky130_fd_pr__pfet_g5v0d10v5#body = 2.500000e+00
m.xm8.msky130_fd_pr__pfet_g5v0d10v5#dbody = 2.500000e+00
m.xm8.msky130_fd_pr__pfet_g5v0d10v5#sbody = 2.500000e+00
m.xm9.msky130_fd_pr__nfet_g5v0d10v5#body = 1.844895e-11
m.xm9.msky130_fd_pr__nfet_g5v0d10v5#dbody = 4.606534e-11
m.xm9.msky130_fd_pr__nfet_g5v0d10v5#sbody = 9.280747e-12
m.xm10.msky130_fd_pr__nfet_g5v0d10v5#body = 1.606880e-11
m.xm10.msky130_fd_pr__nfet_g5v0d10v5#dbody = 4.011572e-11
m.xm10.msky130_fd_pr__nfet_g5v0d10v5#sbody = 8.090673e-12
m.xm11.msky130_fd_pr__pfet_g5v0d10v5#body = 2.500000e+00
m.xm11.msky130_fd_pr__pfet_g5v0d10v5#dbody = 2.500000e+00
m.xm11.msky130_fd_pr__pfet_g5v0d10v5#sbody = 2.500000e+00
m.xm12.msky130_fd_pr__pfet_g5v0d10v5#body = 2.500000e+00
m.xm12.msky130_fd_pr__pfet_g5v0d10v5#dbody = 2.500000e+00
m.xm12.msky130_fd_pr__pfet_g5v0d10v5#sbody = 2.500000e+00
m.xm13.msky130_fd_pr__nfet_g5v0d10v5#body = 2.813381e-14
m.xm13.msky130_fd_pr__nfet_g5v0d10v5#dbody = 7.033434e-14
m.xm13.msky130_fd_pr__nfet_g5v0d10v5#sbody = 1.406708e-14
m.xm14.msky130_fd_pr__pfet_g5v0d10v5#body = 2.500000e+00
m.xm14.msky130_fd_pr__pfet_g5v0d10v5#dbody = 2.500000e+00
m.xm14.msky130_fd_pr__pfet_g5v0d10v5#sbody = 2.500000e+00
m.xm15.msky130_fd_pr__nfet_g5v0d10v5#body = 2.344977e-12
m.xm15.msky130_fd_pr__nfet_g5v0d10v5#dbody = 5.862442e-12
m.xm15.msky130_fd_pr__nfet_g5v0d10v5#sbody = 1.172489e-12
m.xm16.msky130_fd_pr__nfet_g5v0d10v5#body = 4.148854e-11
m.xm16.msky130_fd_pr__nfet_g5v0d10v5#dbody = 8.324439e-11
m.xm16.msky130_fd_pr__nfet_g5v0d10v5#sbody = 4.122124e-11
m.xm17.msky130_fd_pr__pfet_g5v0d10v5#body = 2.500000e+00
m.xm17.msky130_fd_pr__pfet_g5v0d10v5#dbody = 2.500000e+00
m.xm17.msky130_fd_pr__pfet_g5v0d10v5#sbody = 2.500000e+00
m.xm18.msky130_fd_pr__nfet_g5v0d10v5#body = 1.345745e-11
m.xm18.msky130_fd_pr__nfet_g5v0d10v5#dbody = 3.364361e-11
m.xm18.msky130_fd_pr__nfet_g5v0d10v5#sbody = 6.728730e-12
m.xm19.msky130_fd_pr__nfet_g5v0d10v5#body = 1.653148e-11
m.xm19.msky130_fd_pr__nfet_g5v0d10v5#dbody = 3.995158e-11
m.xm19.msky130_fd_pr__nfet_g5v0d10v5#sbody = 9.642774e-12
m.xm20.msky130_fd_pr__nfet_g5v0d10v5#body = 1.072651e-11
m.xm20.msky130_fd_pr__nfet_g5v0d10v5#dbody = 2.681626e-11
m.xm20.msky130_fd_pr__nfet_g5v0d10v5#sbody = 5.363259e-12
m.xm22.msky130_fd_pr__nfet_g5v0d10v5#body = 6.885501e-13
m.xm22.msky130_fd_pr__nfet_g5v0d10v5#dbody = 1.721374e-12
m.xm22.msky130_fd_pr__nfet_g5v0d10v5#sbody = 3.442766e-13
m.xm24.msky130_fd_pr__pfet_g5v0d10v5#body = 2.500000e+00
m.xm24.msky130_fd_pr__pfet_g5v0d10v5#dbody = 2.500000e+00
m.xm24.msky130_fd_pr__pfet_g5v0d10v5#sbody = 2.500000e+00
m.xm26.msky130_fd_pr__pfet_g5v0d10v5#body = 2.500000e+00
m.xm26.msky130_fd_pr__pfet_g5v0d10v5#dbody = 2.500000e+00
m.xm26.msky130_fd_pr__pfet_g5v0d10v5#sbody = 2.500000e+00
mir = 1.228785e+00
net1 = 5.982237e-01
net2 = 1.875831e-01
net3 = 5.985466e-01
net4 = 5.507724e-02
net5 = 1.267429e+00
net6 = 8.621305e-01
net7 = 5.982714e-01
net8 = 1.283250e+00
net9 = 1.473631e+00
net10 = 2.250557e-03
net11 = 1.076594e+00
net12 = 1.076594e+00
net13 = 0.000000e+00
out = 1.076594e+00
pos = 6.069550e-01
q.xq2.qsky130_fd_pr__pnp_05v5_w0p68l0p68#collcx = 2.075060e-07
q.xq3.qsky130_fd_pr__pnp_05v5_w0p68l0p68#collcx = 2.047714e-07
q.xq4.qsky130_fd_pr__pnp_05v5_w0p68l0p68#collcx = 2.047714e-07
q.xq8.qsky130_fd_pr__pnp_05v5_w0p68l0p68#collcx = 2.047714e-07
q.xq10.qsky130_fd_pr__pnp_05v5_w0p68l0p68#collcx = 2.047714e-07
q.xq12.qsky130_fd_pr__pnp_05v5_w0p68l0p68#collcx = 2.047714e-07
q.xq14.qsky130_fd_pr__pnp_05v5_w0p68l0p68#collcx = 2.047714e-07
q.xq16.qsky130_fd_pr__pnp_05v5_w0p68l0p68#collcx = 2.047714e-07
q.xq18.qsky130_fd_pr__pnp_05v5_w0p68l0p68#collcx = 2.047714e-07
vb = 8.581187e-01
vdd = 2.500000e+00
vs#branch = -5.07846e-02
vt#branch = 0.000000e+00
xc1.a = 0.000000e+00
xc1.b1 = 0.000000e+00
xc3.a = 1.076594e+00
xc3.b1 = 1.076594e+00
xr1.xsky130_fd_pr__res_xhigh_po_0p69.ra = 5.996516e-01
xr2.xsky130_fd_pr__res_xhigh_po_0p69.ra = 5.999268e-01
xr3.xsky130_fd_pr__res_xhigh_po_0p69.ra = 1.413325e-03
xr4.xsky130_fd_pr__res_xhigh_po_0p69.ra = 5.982245e-01
xr5.xsky130_fd_pr__res_xhigh_po_0p69.ra = 1.412644e-03
xr6.xsky130_fd_pr__res_xhigh_po_0p69.ra = 1.428852e-03
xr7.xsky130_fd_pr__res_xhigh_po_0p69.ra = 1.076594e+00
xr8.xsky130_fd_pr__res_xhigh_po_0p69.ra = 6.094039e-01
xr9.xsky130_fd_pr__res_xhigh_po_0p69.ra = 2.499940e-03
Doing analysis at TEMP = 0.000000 and TNOM = 27.000000


No. of Data Rows : 91
Note: Starting true gmin stepping
Trying gmin =   1.0000E-03 Note: One successful gmin step
Trying gmin =   1.0000E-04 Note: One successful gmin step
Trying gmin =   1.0000E-05 Note: One successful gmin step
Trying gmin =   1.0000E-06 Note: One successful gmin step
Trying gmin =   1.0000E-07 Note: One successful gmin step
Trying gmin =   1.0000E-08 Note: One successful gmin step
Trying gmin =   1.0000E-09 Note: One successful gmin step
Trying gmin =   1.0000E-10 Note: One successful gmin step
Trying gmin =   1.0000E-11 Note: One successful gmin step
Trying gmin =   1.0000E-12 Note: One successful gmin step
Trying gmin =   1.0000E-12 Note: One successful gmin step
Note: True gmin stepping completed
Note: Starting true gmin stepping
Trying gmin =   1.0000E-03 Note: One successful gmin step
Trying gmin =   1.0000E-04 Note: One successful gmin step
Trying gmin =   1.0000E-05 Note: One successful gmin step
Trying gmin =   1.0000E-06 Note: One successful gmin step
Trying gmin =   1.0000E-07 Note: One successful gmin step
Trying gmin =   1.0000E-08 Note: One successful gmin step
Trying gmin =   1.0000E-09 Note: One successful gmin step
Trying gmin =   1.0000E-10 Note: One successful gmin step
Trying gmin =   1.0000E-11 Note: One successful gmin step
Trying gmin =   1.0000E-12 Note: One successful gmin step
Trying gmin =   1.0000E-12 Note: One successful gmin step
Note: True gmin stepping completed
 Reference value :  1.42000e+00Note: Starting true gmin stepping
Trying gmin =   1.0000E-03 Note: One successful gmin step
Trying gmin =   1.0000E-04 Note: One successful gmin step
Trying gmin =   1.0000E-05 Note: One successful gmin step
Trying gmin =   1.0000E-06 Note: One successful gmin step
Trying gmin =   1.0000E-07 Note: One successful gmin step
Trying gmin =   1.0000E-08 Note: One successful gmin step
Trying gmin =   1.0000E-09 Note: One successful gmin step
Trying gmin =   1.0000E-10 Note: One successful gmin step
Trying gmin =   1.0000E-11 Note: One successful gmin step
Trying gmin =   1.0000E-12 Warning: Further gmin increment
Trying gmin =   5.6234E-12 Note: One successful gmin step
Trying gmin =   2.3714E-12 Note: One successful gmin step
Trying gmin =   1.0000E-12 Warning: Further gmin increment
Trying gmin =   1.9110E-12 Note: One successful gmin step
Trying gmin =   1.3824E-12 Note: One successful gmin step
Trying gmin =   1.0000E-12 Warning: Further gmin increment
Trying gmin =   1.2749E-12 Note: One successful gmin step
Trying gmin =   1.1291E-12 Note: One successful gmin step
Trying gmin =   1.0000E-12 Note: One successful gmin step
Warning: True gmin stepping failed
Note: Starting dynamic gmin stepping
Trying gmin =   1.0000E-03 Note: One successful gmin step
Trying gmin =   1.0000E-04 Note: One successful gmin step
Trying gmin =   1.0000E-05 Note: One successful gmin step
Trying gmin =   1.0000E-06 Note: One successful gmin step
Trying gmin =   1.0000E-07 Note: One successful gmin step
Trying gmin =   1.0000E-08 Note: One successful gmin step
Trying gmin =   1.0000E-09 Note: One successful gmin step
Trying gmin =   1.0000E-10 Note: One successful gmin step
Trying gmin =   1.0000E-11 Note: One successful gmin step
Trying gmin =   1.0000E-12 Note: One successful gmin step
Trying gmin =   1.0000E-12 Note: One successful gmin step
Note: Dynamic gmin stepping completed
pm                  =  9.108500e+01
Doing analysis at TEMP = 0.000000 and TNOM = 27.000000


No. of Data Rows : 91
psrr100             =  -3.577377e+01
psrr100k            =  -4.549976e+00
Doing analysis at TEMP = 0.000000 and TNOM = 27.000000


No. of Data Rows : 86
temp_coeff = 1.802941e+02
Doing analysis at TEMP = 0.000000 and TNOM = 27.000000


No. of Data Rows : 141
vldo_sup_2          =  9.245696e-01
vldo_sup_2_8        =  9.088555e-01
line_reg = 1.964263e-02
Error(parse.c--checkvalid): vin: zero length vector.
Error: RHS "vin-1.764" invalid
Error(parse.c--checkvalid): dropout: zero length vector.
Error: no such vector dropout
Note: No ".plot", ".print", or ".fourier" lines; no simulations run

Error: measure  vin  (WHEN) : out of interval
 meas dc vin when v(ldo_out)=1.764 failed!

