 Reference value :  0.00000e+00
No compatibility mode selected!


Circuit: * ldo netlist 

Doing analysis at TEMP = 85.000000 and TNOM = 27.000000


No. of Data Rows : 1
bg_out = 1.099397e+00
inn = 1.061531e+00
inp = 1.061484e+00
l1#branch = 1.387779e-17
ldo_out = 1.807327e+00
m.xm1.msky130_fd_pr__nfet_g5v0d10v5#body = 2.691563e-11
m.xm1.msky130_fd_pr__nfet_g5v0d10v5#dbody = 5.014769e-11
m.xm1.msky130_fd_pr__nfet_g5v0d10v5#sbody = 3.059920e-11
m.xm2.msky130_fd_pr__pfet_g5v0d10v5#body = 2.300000e+00
m.xm2.msky130_fd_pr__pfet_g5v0d10v5#dbody = 2.300000e+00
m.xm2.msky130_fd_pr__pfet_g5v0d10v5#sbody = 2.300000e+00
m.xm3.msky130_fd_pr__pfet_g5v0d10v5#body = 2.300000e+00
m.xm3.msky130_fd_pr__pfet_g5v0d10v5#dbody = 2.300000e+00
m.xm3.msky130_fd_pr__pfet_g5v0d10v5#sbody = 2.300000e+00
m.xm4.msky130_fd_pr__pfet_g5v0d10v5#body = 2.300000e+00
m.xm4.msky130_fd_pr__pfet_g5v0d10v5#dbody = 2.300000e+00
m.xm4.msky130_fd_pr__pfet_g5v0d10v5#sbody = 2.300000e+00
m.xm5.msky130_fd_pr__pfet_g5v0d10v5#body = 2.300000e+00
m.xm5.msky130_fd_pr__pfet_g5v0d10v5#dbody = 2.300000e+00
m.xm5.msky130_fd_pr__pfet_g5v0d10v5#sbody = 2.300000e+00
m.xm6.msky130_fd_pr__nfet_g5v0d10v5#body = 1.913486e-11
m.xm6.msky130_fd_pr__nfet_g5v0d10v5#dbody = 4.783703e-11
m.xm6.msky130_fd_pr__nfet_g5v0d10v5#sbody = 9.567545e-12
m.xm7.msky130_fd_pr__pfet_g5v0d10v5#body = 2.300000e+00
m.xm7.msky130_fd_pr__pfet_g5v0d10v5#dbody = 2.300000e+00
m.xm7.msky130_fd_pr__pfet_g5v0d10v5#sbody = 2.300000e+00
m.xm8.msky130_fd_pr__pfet_g5v0d10v5#body = 2.300000e+00
m.xm8.msky130_fd_pr__pfet_g5v0d10v5#dbody = 2.300000e+00
m.xm8.msky130_fd_pr__pfet_g5v0d10v5#sbody = 2.300000e+00
m.xm9.msky130_fd_pr__nfet_g5v0d10v5#body = 2.508310e-11
m.xm9.msky130_fd_pr__nfet_g5v0d10v5#dbody = 4.851331e-11
m.xm9.msky130_fd_pr__nfet_g5v0d10v5#sbody = 2.673600e-11
m.xm10.msky130_fd_pr__nfet_g5v0d10v5#body = 2.488139e-11
m.xm10.msky130_fd_pr__nfet_g5v0d10v5#dbody = 4.800902e-11
m.xm10.msky130_fd_pr__nfet_g5v0d10v5#sbody = 2.663514e-11
m.xm11.msky130_fd_pr__pfet_g5v0d10v5#body = 2.300000e+00
m.xm11.msky130_fd_pr__pfet_g5v0d10v5#dbody = 2.300000e+00
m.xm11.msky130_fd_pr__pfet_g5v0d10v5#sbody = 2.300000e+00
m.xm12.msky130_fd_pr__pfet_g5v0d10v5#body = 2.300000e+00
m.xm12.msky130_fd_pr__pfet_g5v0d10v5#dbody = 2.300000e+00
m.xm12.msky130_fd_pr__pfet_g5v0d10v5#sbody = 2.300000e+00
m.xm13.msky130_fd_pr__nfet_g5v0d10v5#body = 5.449833e-12
m.xm13.msky130_fd_pr__nfet_g5v0d10v5#dbody = 1.362451e-11
m.xm13.msky130_fd_pr__nfet_g5v0d10v5#sbody = 2.724985e-12
m.xm14.msky130_fd_pr__pfet_g5v0d10v5#body = 2.300000e+00
m.xm14.msky130_fd_pr__pfet_g5v0d10v5#dbody = 2.300000e+00
m.xm14.msky130_fd_pr__pfet_g5v0d10v5#sbody = 2.300000e+00
m.xm15.msky130_fd_pr__nfet_g5v0d10v5#body = 1.021830e-14
m.xm15.msky130_fd_pr__nfet_g5v0d10v5#dbody = 2.554504e-14
m.xm15.msky130_fd_pr__nfet_g5v0d10v5#sbody = 5.109869e-15
m.xm16.msky130_fd_pr__nfet_g5v0d10v5#body = 5.249951e-11
m.xm16.msky130_fd_pr__nfet_g5v0d10v5#dbody = 9.423013e-11
m.xm16.msky130_fd_pr__nfet_g5v0d10v5#sbody = 6.326842e-11
m.xm17.msky130_fd_pr__pfet_g5v0d10v5#body = 2.300000e+00
m.xm17.msky130_fd_pr__pfet_g5v0d10v5#dbody = 2.300000e+00
m.xm17.msky130_fd_pr__pfet_g5v0d10v5#sbody = 2.300000e+00
m.xm18.msky130_fd_pr__nfet_g5v0d10v5#body = 1.677998e-11
m.xm18.msky130_fd_pr__nfet_g5v0d10v5#dbody = 4.194987e-11
m.xm18.msky130_fd_pr__nfet_g5v0d10v5#sbody = 8.390068e-12
m.xm19.msky130_fd_pr__nfet_g5v0d10v5#body = 2.697909e-11
m.xm19.msky130_fd_pr__nfet_g5v0d10v5#dbody = 5.030633e-11
m.xm19.msky130_fd_pr__nfet_g5v0d10v5#sbody = 3.063092e-11
m.xm20.msky130_fd_pr__nfet_g5v0d10v5#body = 1.240900e-11
m.xm20.msky130_fd_pr__nfet_g5v0d10v5#dbody = 3.102242e-11
m.xm20.msky130_fd_pr__nfet_g5v0d10v5#sbody = 6.204575e-12
m.xm22.msky130_fd_pr__nfet_g5v0d10v5#body = 1.186521e-11
m.xm22.msky130_fd_pr__nfet_g5v0d10v5#dbody = 2.966290e-11
m.xm22.msky130_fd_pr__nfet_g5v0d10v5#sbody = 5.932714e-12
m.xm24.msky130_fd_pr__pfet_g5v0d10v5#body = 2.300000e+00
m.xm24.msky130_fd_pr__pfet_g5v0d10v5#dbody = 2.300000e+00
m.xm24.msky130_fd_pr__pfet_g5v0d10v5#sbody = 2.300000e+00
m.xm26.msky130_fd_pr__pfet_g5v0d10v5#body = 2.300000e+00
m.xm26.msky130_fd_pr__pfet_g5v0d10v5#dbody = 2.300000e+00
m.xm26.msky130_fd_pr__pfet_g5v0d10v5#sbody = 2.300000e+00
mir = 1.048380e+00
net1 = 6.299014e-01
net2 = 1.976905e-05
net3 = 7.034280e-01
net4 = 2.665782e-01
net5 = 1.053457e+00
net6 = 8.479257e-01
net7 = 7.033799e-01
net8 = 1.135340e+00
net9 = 1.151477e+00
net10 = 2.804470e-01
net11 = 1.186825e+00
net12 = 1.186825e+00
net13 = 0.000000e+00
out = 1.186825e+00
pos = 1.099585e+00
q.xq2.qsky130_fd_pr__pnp_05v5_w0p68l0p68#collcx = 2.963417e-03
q.xq3.qsky130_fd_pr__pnp_05v5_w0p68l0p68#collcx = 3.740061e-04
q.xq4.qsky130_fd_pr__pnp_05v5_w0p68l0p68#collcx = 3.740061e-04
q.xq8.qsky130_fd_pr__pnp_05v5_w0p68l0p68#collcx = 3.740061e-04
q.xq10.qsky130_fd_pr__pnp_05v5_w0p68l0p68#collcx = 3.740061e-04
q.xq12.qsky130_fd_pr__pnp_05v5_w0p68l0p68#collcx = 3.740061e-04
q.xq14.qsky130_fd_pr__pnp_05v5_w0p68l0p68#collcx = 3.740061e-04
q.xq16.qsky130_fd_pr__pnp_05v5_w0p68l0p68#collcx = 3.740061e-04
q.xq18.qsky130_fd_pr__pnp_05v5_w0p68l0p68#collcx = 3.740061e-04
vb = 8.371461e-01
vdd = 2.300000e+00
vs#branch = -1.01799e-02
vt#branch = 0.000000e+00
xc1.a = 0.000000e+00
xc1.b1 = 0.000000e+00
xc3.a = 1.186825e+00
xc3.b1 = 1.186825e+00
xr1.xsky130_fd_pr__res_xhigh_po_0p69.ra = 7.093314e-01
xr2.xsky130_fd_pr__res_xhigh_po_0p69.ra = 7.093795e-01
xr3.xsky130_fd_pr__res_xhigh_po_0p69.ra = 3.640838e-03
xr4.xsky130_fd_pr__res_xhigh_po_0p69.ra = 6.322804e-01
xr5.xsky130_fd_pr__res_xhigh_po_0p69.ra = 3.640575e-03
xr6.xsky130_fd_pr__res_xhigh_po_0p69.ra = 6.295195e-03
xr7.xsky130_fd_pr__res_xhigh_po_0p69.ra = 1.186825e+00
xr8.xsky130_fd_pr__res_xhigh_po_0p69.ra = 1.109147e+00
xr9.xsky130_fd_pr__res_xhigh_po_0p69.ra = 9.871995e-03
Doing analysis at TEMP = 85.000000 and TNOM = 27.000000


No. of Data Rows : 91
Error: no such vector PM
 Reference value :  2.80000e+00Note: Starting true gmin stepping
Trying gmin =   1.0000E-03 Note: One successful gmin step
Trying gmin =   1.0000E-04 Note: One successful gmin step
Trying gmin =   1.0000E-05 Note: One successful gmin step
Trying gmin =   1.0000E-06 Note: One successful gmin step
Trying gmin =   1.0000E-07 Note: One successful gmin step
Trying gmin =   1.0000E-08 Warning: Further gmin increment
Trying gmin =   5.6234E-08 Note: One successful gmin step
Trying gmin =   2.3714E-08 Warning: Further gmin increment
Trying gmin =   4.5316E-08 Note: One successful gmin step
Trying gmin =   3.2781E-08 Note: One successful gmin step
Trying gmin =   2.0169E-08 Note: One successful gmin step
Trying gmin =   9.7338E-09 Note: One successful gmin step
Trying gmin =   3.2634E-09 Note: One successful gmin step
Trying gmin =   6.3352E-10 Note: One successful gmin step
Trying gmin =   6.3352E-11 Note: One successful gmin step
Trying gmin =   6.3352E-12 Note: One successful gmin step
Trying gmin =   1.0000E-12 Note: One successful gmin step
Note: True gmin stepping completed
 Reference value :  1.38000e+00Note: Starting true gmin stepping
Trying gmin =   1.0000E-03 Note: One successful gmin step
Trying gmin =   1.0000E-04 Note: One successful gmin step
Trying gmin =   1.0000E-05 Note: One successful gmin step
Trying gmin =   1.0000E-06 Note: One successful gmin step
Trying gmin =   1.0000E-07 Note: One successful gmin step
Trying gmin =   1.0000E-08 Warning: Further gmin increment
Trying gmin =   5.6234E-08 Note: One successful gmin step
Trying gmin =   2.3714E-08 Warning: Further gmin increment
Trying gmin =   4.5316E-08 Note: One successful gmin step
Trying gmin =   3.2781E-08 Warning: Further gmin increment
Trying gmin =   4.1792E-08 Note: One successful gmin step
Trying gmin =   3.7013E-08 Note: One successful gmin step
Trying gmin =   3.0850E-08 Note: One successful gmin step
Trying gmin =   2.3475E-08 Note: One successful gmin step
Trying gmin =   1.5582E-08 Note: One successful gmin step
Trying gmin =   8.4267E-09 Note: One successful gmin step
Trying gmin =   3.3513E-09 Note: One successful gmin step
Trying gmin =   8.4049E-10 Note: One successful gmin step
Trying gmin =   1.0556E-10 Note: One successful gmin step
Trying gmin =   1.0556E-11 Note: One successful gmin step
Trying gmin =   1.0556E-12 Note: One successful gmin step
Trying gmin =   1.0000E-12 Note: One successful gmin step
Note: True gmin stepping completed
 Reference value :  1.36000e+00
Error: measure  pm  (AT) : out of interval
 meas ac pm find p when vdb(ldo_out)=0 failed!

Doing analysis at TEMP = 85.000000 and TNOM = 27.000000


No. of Data Rows : 91
psrr100             =  -5.222037e+01
psrr100k            =  -2.585175e+01
Doing analysis at TEMP = 85.000000 and TNOM = 27.000000


No. of Data Rows : 86
temp_coeff = 4.204473e+01
Doing analysis at TEMP = 85.000000 and TNOM = 27.000000


No. of Data Rows : 141
vldo_sup_2          =  1.806415e+00
vldo_sup_2_8        =  1.808350e+00
line_reg = 2.418750e-03
Note: No ".plot", ".print", or ".fourier" lines; no simulations run
vin                 =  1.788070e+00
dropout = 2.407000e-02
