 Reference value :  0.00000e+00
No compatibility mode selected!


Circuit: * ldo netlist 

Doing analysis at TEMP = 27.000000 and TNOM = 27.000000


No. of Data Rows : 1
bg_out = 1.195757e+00
inn = 1.227449e+00
inp = 1.227426e+00
l1#branch = 0.000000e+00
ldo_out = 1.799207e+00
m.xm1.msky130_fd_pr__nfet_g5v0d10v5#body = 1.650350e-11
m.xm1.msky130_fd_pr__nfet_g5v0d10v5#dbody = 3.274246e-11
m.xm1.msky130_fd_pr__nfet_g5v0d10v5#sbody = 1.676806e-11
m.xm2.msky130_fd_pr__pfet_g5v0d10v5#body = 2.300000e+00
m.xm2.msky130_fd_pr__pfet_g5v0d10v5#dbody = 2.300000e+00
m.xm2.msky130_fd_pr__pfet_g5v0d10v5#sbody = 2.300000e+00
m.xm3.msky130_fd_pr__pfet_g5v0d10v5#body = 2.300000e+00
m.xm3.msky130_fd_pr__pfet_g5v0d10v5#dbody = 2.300000e+00
m.xm3.msky130_fd_pr__pfet_g5v0d10v5#sbody = 2.300000e+00
m.xm4.msky130_fd_pr__pfet_g5v0d10v5#body = 2.300000e+00
m.xm4.msky130_fd_pr__pfet_g5v0d10v5#dbody = 2.300000e+00
m.xm4.msky130_fd_pr__pfet_g5v0d10v5#sbody = 2.300000e+00
m.xm5.msky130_fd_pr__pfet_g5v0d10v5#body = 2.300000e+00
m.xm5.msky130_fd_pr__pfet_g5v0d10v5#dbody = 2.300000e+00
m.xm5.msky130_fd_pr__pfet_g5v0d10v5#sbody = 2.300000e+00
m.xm6.msky130_fd_pr__nfet_g5v0d10v5#body = 1.116649e-11
m.xm6.msky130_fd_pr__nfet_g5v0d10v5#dbody = 2.791622e-11
m.xm6.msky130_fd_pr__nfet_g5v0d10v5#sbody = 5.583250e-12
m.xm7.msky130_fd_pr__pfet_g5v0d10v5#body = 2.300000e+00
m.xm7.msky130_fd_pr__pfet_g5v0d10v5#dbody = 2.300000e+00
m.xm7.msky130_fd_pr__pfet_g5v0d10v5#sbody = 2.300000e+00
m.xm8.msky130_fd_pr__pfet_g5v0d10v5#body = 2.300000e+00
m.xm8.msky130_fd_pr__pfet_g5v0d10v5#dbody = 2.300000e+00
m.xm8.msky130_fd_pr__pfet_g5v0d10v5#sbody = 2.300000e+00
m.xm9.msky130_fd_pr__nfet_g5v0d10v5#body = 1.719426e-11
m.xm9.msky130_fd_pr__nfet_g5v0d10v5#dbody = 3.536559e-11
m.xm9.msky130_fd_pr__nfet_g5v0d10v5#sbody = 1.621719e-11
m.xm10.msky130_fd_pr__nfet_g5v0d10v5#body = 1.713529e-11
m.xm10.msky130_fd_pr__nfet_g5v0d10v5#dbody = 3.521818e-11
m.xm10.msky130_fd_pr__nfet_g5v0d10v5#sbody = 1.618770e-11
m.xm11.msky130_fd_pr__pfet_g5v0d10v5#body = 2.300000e+00
m.xm11.msky130_fd_pr__pfet_g5v0d10v5#dbody = 2.300000e+00
m.xm11.msky130_fd_pr__pfet_g5v0d10v5#sbody = 2.300000e+00
m.xm12.msky130_fd_pr__pfet_g5v0d10v5#body = 2.300000e+00
m.xm12.msky130_fd_pr__pfet_g5v0d10v5#dbody = 2.300000e+00
m.xm12.msky130_fd_pr__pfet_g5v0d10v5#sbody = 2.300000e+00
m.xm13.msky130_fd_pr__nfet_g5v0d10v5#body = 3.808670e-12
m.xm13.msky130_fd_pr__nfet_g5v0d10v5#dbody = 9.521664e-12
m.xm13.msky130_fd_pr__nfet_g5v0d10v5#sbody = 1.904347e-12
m.xm14.msky130_fd_pr__pfet_g5v0d10v5#body = 2.300000e+00
m.xm14.msky130_fd_pr__pfet_g5v0d10v5#dbody = 2.300000e+00
m.xm14.msky130_fd_pr__pfet_g5v0d10v5#sbody = 2.300000e+00
m.xm15.msky130_fd_pr__nfet_g5v0d10v5#body = 4.333282e-17
m.xm15.msky130_fd_pr__nfet_g5v0d10v5#dbody = 1.083279e-16
m.xm15.msky130_fd_pr__nfet_g5v0d10v5#sbody = 2.167058e-17
m.xm16.msky130_fd_pr__nfet_g5v0d10v5#body = 4.410175e-11
m.xm16.msky130_fd_pr__nfet_g5v0d10v5#dbody = 7.955950e-11
m.xm16.msky130_fd_pr__nfet_g5v0d10v5#sbody = 5.274573e-11
m.xm17.msky130_fd_pr__pfet_g5v0d10v5#body = 2.300000e+00
m.xm17.msky130_fd_pr__pfet_g5v0d10v5#dbody = 2.300000e+00
m.xm17.msky130_fd_pr__pfet_g5v0d10v5#sbody = 2.300000e+00
m.xm18.msky130_fd_pr__nfet_g5v0d10v5#body = 8.002703e-12
m.xm18.msky130_fd_pr__nfet_g5v0d10v5#dbody = 2.000674e-11
m.xm18.msky130_fd_pr__nfet_g5v0d10v5#sbody = 4.001364e-12
m.xm19.msky130_fd_pr__nfet_g5v0d10v5#body = 1.653481e-11
m.xm19.msky130_fd_pr__nfet_g5v0d10v5#dbody = 3.282072e-11
m.xm19.msky130_fd_pr__nfet_g5v0d10v5#sbody = 1.678371e-11
m.xm20.msky130_fd_pr__nfet_g5v0d10v5#body = 1.108196e-11
m.xm20.msky130_fd_pr__nfet_g5v0d10v5#dbody = 2.770488e-11
m.xm20.msky130_fd_pr__nfet_g5v0d10v5#sbody = 5.540991e-12
m.xm22.msky130_fd_pr__nfet_g5v0d10v5#body = 4.260866e-12
m.xm22.msky130_fd_pr__nfet_g5v0d10v5#dbody = 1.065216e-11
m.xm22.msky130_fd_pr__nfet_g5v0d10v5#sbody = 2.130438e-12
m.xm24.msky130_fd_pr__pfet_g5v0d10v5#body = 2.300000e+00
m.xm24.msky130_fd_pr__pfet_g5v0d10v5#dbody = 2.300000e+00
m.xm24.msky130_fd_pr__pfet_g5v0d10v5#sbody = 2.300000e+00
m.xm26.msky130_fd_pr__pfet_g5v0d10v5#body = 2.300000e+00
m.xm26.msky130_fd_pr__pfet_g5v0d10v5#dbody = 2.300000e+00
m.xm26.msky130_fd_pr__pfet_g5v0d10v5#sbody = 2.300000e+00
mir = 9.792830e-01
net1 = 7.274665e-01
net2 = 3.334389e-06
net3 = 7.873318e-01
net4 = 3.403069e-01
net5 = 9.817874e-01
net6 = 8.927567e-01
net7 = 7.873078e-01
net8 = 1.065785e+00
net9 = 1.070502e+00
net10 = 3.045655e-01
net11 = 6.400880e-01
net12 = 6.400880e-01
net13 = 0.000000e+00
out = 6.400880e-01
pos = 1.195807e+00
q.xq2.qsky130_fd_pr__pnp_05v5_w0p68l0p68#collcx = 2.277881e-03
q.xq3.qsky130_fd_pr__pnp_05v5_w0p68l0p68#collcx = 2.870631e-04
q.xq4.qsky130_fd_pr__pnp_05v5_w0p68l0p68#collcx = 2.870631e-04
q.xq8.qsky130_fd_pr__pnp_05v5_w0p68l0p68#collcx = 2.870631e-04
q.xq10.qsky130_fd_pr__pnp_05v5_w0p68l0p68#collcx = 2.870631e-04
q.xq12.qsky130_fd_pr__pnp_05v5_w0p68l0p68#collcx = 2.870631e-04
q.xq14.qsky130_fd_pr__pnp_05v5_w0p68l0p68#collcx = 2.870631e-04
q.xq16.qsky130_fd_pr__pnp_05v5_w0p68l0p68#collcx = 2.870631e-04
q.xq18.qsky130_fd_pr__pnp_05v5_w0p68l0p68#collcx = 2.870631e-04
vb = 8.864283e-01
vdd = 2.300000e+00
vs#branch = -1.00087e-01
vt#branch = 0.000000e+00
xc1.a = 0.000000e+00
xc1.b1 = 0.000000e+00
xc3.a = 6.400880e-01
xc3.b1 = 6.400880e-01
xr1.xsky130_fd_pr__res_xhigh_po_0p69.ra = 7.902114e-01
xr2.xsky130_fd_pr__res_xhigh_po_0p69.ra = 7.902354e-01
xr3.xsky130_fd_pr__res_xhigh_po_0p69.ra = 1.966688e-03
xr4.xsky130_fd_pr__res_xhigh_po_0p69.ra = 7.284414e-01
xr5.xsky130_fd_pr__res_xhigh_po_0p69.ra = 1.966624e-03
xr6.xsky130_fd_pr__res_xhigh_po_0p69.ra = 3.086704e-03
xr7.xsky130_fd_pr__res_xhigh_po_0p69.ra = 6.400880e-01
xr8.xsky130_fd_pr__res_xhigh_po_0p69.ra = 1.200937e+00
xr9.xsky130_fd_pr__res_xhigh_po_0p69.ra = 5.379991e-03
Doing analysis at TEMP = 27.000000 and TNOM = 27.000000


No. of Data Rows : 91
Note: Starting true gmin stepping
Trying gmin =   1.0000E-03 Note: One successful gmin step
Trying gmin =   1.0000E-04 Note: One successful gmin step
Trying gmin =   1.0000E-05 Note: One successful gmin step
Trying gmin =   1.0000E-06 Note: One successful gmin step
Trying gmin =   1.0000E-07 Note: One successful gmin step
Trying gmin =   1.0000E-08 Warning: Further gmin increment
Trying gmin =   5.6234E-08 Note: One successful gmin step
Trying gmin =   2.3714E-08 Note: One successful gmin step
Trying gmin =   6.4938E-09 Warning: Further gmin increment
Trying gmin =   1.7154E-08 Note: One successful gmin step
Trying gmin =   1.2409E-08 Note: One successful gmin step
Trying gmin =   7.6351E-09 Note: One successful gmin step
Trying gmin =   3.6847E-09 Note: One successful gmin step
Trying gmin =   1.2354E-09 Note: One successful gmin step
Trying gmin =   2.3982E-10 Note: One successful gmin step
Trying gmin =   2.3982E-11 Note: One successful gmin step
Trying gmin =   2.3982E-12 Note: One successful gmin step
Trying gmin =   1.0000E-12 Note: One successful gmin step
Note: True gmin stepping completed
 Reference value :  1.38000e+00Note: Starting true gmin stepping
Trying gmin =   1.0000E-03 Note: One successful gmin step
Trying gmin =   1.0000E-04 Note: One successful gmin step
Trying gmin =   1.0000E-05 Note: One successful gmin step
Trying gmin =   1.0000E-06 Note: One successful gmin step
Trying gmin =   1.0000E-07 Note: One successful gmin step
Trying gmin =   1.0000E-08 Warning: Further gmin increment
Trying gmin =   5.6234E-08 Note: One successful gmin step
Trying gmin =   2.3714E-08 Note: One successful gmin step
Trying gmin =   6.4938E-09 Warning: Further gmin increment
Trying gmin =   1.7154E-08 Note: One successful gmin step
Trying gmin =   1.2409E-08 Note: One successful gmin step
Trying gmin =   7.6351E-09 Note: One successful gmin step
Trying gmin =   3.6847E-09 Note: One successful gmin step
Trying gmin =   1.2354E-09 Note: One successful gmin step
Trying gmin =   2.3982E-10 Note: One successful gmin step
Trying gmin =   2.3982E-11 Note: One successful gmin step
Trying gmin =   2.3982E-12 Note: One successful gmin step
Trying gmin =   1.0000E-12 Note: One successful gmin step
Note: True gmin stepping completed
pm                  =  1.347929e+02
Doing analysis at TEMP = 27.000000 and TNOM = 27.000000


No. of Data Rows : 91
psrr100             =  -6.940135e+01
psrr100k            =  -2.636616e+01
Doing analysis at TEMP = 27.000000 and TNOM = 27.000000


No. of Data Rows : 86
temp_coeff = 1.714546e+02
Doing analysis at TEMP = 27.000000 and TNOM = 27.000000


No. of Data Rows : 141
vldo_sup_2          =  1.790614e+00
vldo_sup_2_8        =  1.799258e+00
line_reg = 1.080500e-02
Note: No ".plot", ".print", or ".fourier" lines; no simulations run
vin                 =  1.976018e+00
dropout = 2.120180e-01
