 Reference value :  8.00000e+01Note: Starting true gmin stepping
Trying gmin =   1.0000E-03 Note: One successful gmin step
Trying gmin =   1.0000E-04 Note: One successful gmin step
Trying gmin =   1.0000E-05 Note: One successful gmin step
Trying gmin =   1.0000E-06 Note: One successful gmin step
Trying gmin =   1.0000E-07 Note: One successful gmin step
Trying gmin =   1.0000E-08 Note: One successful gmin step
Trying gmin =   1.0000E-09 Note: One successful gmin step
Trying gmin =   1.0000E-10 Warning: Further gmin increment
Trying gmin =   5.6234E-10 Note: One successful gmin step
Trying gmin =   2.3714E-10 Note: One successful gmin step
Trying gmin =   6.4938E-11 Warning: Further gmin increment
Trying gmin =   1.7154E-10 Note: One successful gmin step
Trying gmin =   1.0554E-10 Note: One successful gmin step
Trying gmin =   5.0937E-11 Note: One successful gmin step
Trying gmin =   1.7077E-11 Note: One successful gmin step
Trying gmin =   3.3152E-12 Note: One successful gmin step
Trying gmin =   1.0000E-12 Note: One successful gmin step
Note: True gmin stepping completed
 Reference value :  1.10000e+00
No compatibility mode selected!


Circuit: * ldo netlist 

Doing analysis at TEMP = 85.000000 and TNOM = 27.000000


No. of Data Rows : 81
temp_coeff = 4.197019e+01
Doing analysis at TEMP = 85.000000 and TNOM = 27.000000


No. of Data Rows : 151
vldo_sup_2          =  1.797900e+00
vldo_sup_3          =  1.801323e+00
line_reg = 3.423000e-03
Note: Starting true gmin stepping
Trying gmin =   1.0000E-03 Note: One successful gmin step
Trying gmin =   1.0000E-04 Note: One successful gmin step
Trying gmin =   1.0000E-05 Note: One successful gmin step
Trying gmin =   1.0000E-06 Note: One successful gmin step
Trying gmin =   1.0000E-07 Warning: Further gmin increment
Trying gmin =   5.6234E-07 Note: One successful gmin step
Trying gmin =   2.3714E-07 Note: One successful gmin step
Trying gmin =   6.4938E-08 Warning: Further gmin increment
Trying gmin =   1.7154E-07 Note: One successful gmin step
Trying gmin =   1.0554E-07 Warning: Further gmin increment
Trying gmin =   1.5193E-07 Note: One successful gmin step
Trying gmin =   1.2663E-07 Note: One successful gmin step
Trying gmin =   9.6358E-08 Note: One successful gmin step
Trying gmin =   6.3960E-08 Note: One successful gmin step
Trying gmin =   3.4589E-08 Warning: Further gmin increment
Trying gmin =   5.4849E-08 Warning: Further gmin increment
Trying gmin =   6.1549E-08 Note: One successful gmin step
Trying gmin =   5.8102E-08 Note: One successful gmin step
Trying gmin =   5.3291E-08 Warning: Further gmin increment
Trying gmin =   5.6860E-08 Warning: Further gmin increment
Trying gmin =   5.7789E-08 Note: One successful gmin step
Trying gmin =   5.7323E-08 Warning: Further gmin increment
Trying gmin =   5.7672E-08 Note: One successful gmin step
Trying gmin =   5.7497E-08 Warning: Further gmin increment
Trying gmin =   5.7629E-08 Note: One successful gmin step
Trying gmin =   5.7563E-08 Note: One successful gmin step
Trying gmin =   5.7465E-08 Warning: Further gmin increment
Trying gmin =   5.7538E-08 Note: One successful gmin step
Trying gmin =   5.7502E-08 Warning: Further gmin increment
Trying gmin =   5.7529E-08 Warning: Further gmin increment
Trying gmin =   5.7536E-08 Note: One successful gmin step
Trying gmin =   5.7533E-08 Note: One successful gmin step
Trying gmin =   5.7527E-08 Warning: Further gmin increment
Trying gmin =   5.7531E-08 Note: One successful gmin step
Trying gmin =   5.7529E-08 Warning: Last gmin step failed
Warning: True gmin stepping failed
Note: Starting dynamic gmin stepping
Trying gmin =   1.0000E-03 Note: One successful gmin step
Trying gmin =   1.0000E-04 Note: One successful gmin step
Trying gmin =   1.0000E-05 Note: One successful gmin step
Trying gmin =   1.0000E-06 Note: One successful gmin step
Trying gmin =   1.0000E-07 Warning: Further gmin increment
Trying gmin =   5.6234E-07 Note: One successful gmin step
Trying gmin =   2.3714E-07 Warning: Further gmin increment
Trying gmin =   4.5316E-07 Note: One successful gmin step
Trying gmin =   3.2781E-07 Warning: Further gmin increment
Trying gmin =   4.1792E-07 Note: One successful gmin step
Trying gmin =   3.7013E-07 Note: One successful gmin step
Trying gmin =   3.0850E-07 Warning: Further gmin increment
Trying gmin =   3.5366E-07 Note: One successful gmin step
Trying gmin =   3.3031E-07 Note: One successful gmin step
Trying gmin =   2.9814E-07 Note: One successful gmin step
Trying gmin =   2.6911E-07 Note: One successful gmin step
Trying gmin =   2.3078E-07 Note: One successful gmin step
Trying gmin =   1.8326E-07 Note: One successful gmin step
Trying gmin =   1.2969E-07 Note: One successful gmin step
Trying gmin =   7.7206E-08 Note: One successful gmin step
Trying gmin =   3.5463E-08 Note: One successful gmin step
Trying gmin =   1.1040E-08 Note: One successful gmin step
Trying gmin =   1.9174E-09 Note: One successful gmin step
Trying gmin =   1.9174E-10 Note: One successful gmin step
Trying gmin =   1.9174E-11 Note: One successful gmin step
Trying gmin =   1.9174E-12 Note: One successful gmin step
Trying gmin =   1.0000E-12 Note: One successful gmin step
Note: Dynamic gmin stepping completed
 Reference value :  1.00000e+00Note: No ".plot", ".print", or ".fourier" lines; no simulations run
vin                 =  1.916111e+00
dropout = 1.521110e-01
Doing analysis at TEMP = 85.000000 and TNOM = 27.000000


No. of Data Rows : 91
psrr100             =  -3.842691e+01
psrr100k            =  -8.146664e+00
