 Reference value :  0.00000e+00
No compatibility mode selected!


Circuit: * ldo netlist 

Doing analysis at TEMP = 85.000000 and TNOM = 27.000000


No. of Data Rows : 1
bg_out = 1.098873e+00
inn = 1.061332e+00
inp = 1.061235e+00
l1#branch = 0.000000e+00
ldo_out = 1.806282e+00
m.xm1.msky130_fd_pr__nfet_g5v0d10v5#body = 2.510725e-11
m.xm1.msky130_fd_pr__nfet_g5v0d10v5#dbody = 4.681108e-11
m.xm1.msky130_fd_pr__nfet_g5v0d10v5#sbody = 2.851066e-11
m.xm2.msky130_fd_pr__pfet_g5v0d10v5#body = 2.100000e+00
m.xm2.msky130_fd_pr__pfet_g5v0d10v5#dbody = 2.100000e+00
m.xm2.msky130_fd_pr__pfet_g5v0d10v5#sbody = 2.100000e+00
m.xm3.msky130_fd_pr__pfet_g5v0d10v5#body = 2.100000e+00
m.xm3.msky130_fd_pr__pfet_g5v0d10v5#dbody = 2.100000e+00
m.xm3.msky130_fd_pr__pfet_g5v0d10v5#sbody = 2.100000e+00
m.xm4.msky130_fd_pr__pfet_g5v0d10v5#body = 2.100000e+00
m.xm4.msky130_fd_pr__pfet_g5v0d10v5#dbody = 2.100000e+00
m.xm4.msky130_fd_pr__pfet_g5v0d10v5#sbody = 2.100000e+00
m.xm5.msky130_fd_pr__pfet_g5v0d10v5#body = 2.100000e+00
m.xm5.msky130_fd_pr__pfet_g5v0d10v5#dbody = 2.100000e+00
m.xm5.msky130_fd_pr__pfet_g5v0d10v5#sbody = 2.100000e+00
m.xm6.msky130_fd_pr__nfet_g5v0d10v5#body = 1.983094e-11
m.xm6.msky130_fd_pr__nfet_g5v0d10v5#dbody = 4.957724e-11
m.xm6.msky130_fd_pr__nfet_g5v0d10v5#sbody = 9.915586e-12
m.xm7.msky130_fd_pr__pfet_g5v0d10v5#body = 2.100000e+00
m.xm7.msky130_fd_pr__pfet_g5v0d10v5#dbody = 2.100000e+00
m.xm7.msky130_fd_pr__pfet_g5v0d10v5#sbody = 2.100000e+00
m.xm8.msky130_fd_pr__pfet_g5v0d10v5#body = 2.100000e+00
m.xm8.msky130_fd_pr__pfet_g5v0d10v5#dbody = 2.100000e+00
m.xm8.msky130_fd_pr__pfet_g5v0d10v5#sbody = 2.100000e+00
m.xm9.msky130_fd_pr__nfet_g5v0d10v5#body = 2.324205e-11
m.xm9.msky130_fd_pr__nfet_g5v0d10v5#dbody = 4.516744e-11
m.xm9.msky130_fd_pr__nfet_g5v0d10v5#sbody = 2.455871e-11
m.xm10.msky130_fd_pr__nfet_g5v0d10v5#body = 2.316577e-11
m.xm10.msky130_fd_pr__nfet_g5v0d10v5#dbody = 4.497675e-11
m.xm10.msky130_fd_pr__nfet_g5v0d10v5#sbody = 2.452057e-11
m.xm11.msky130_fd_pr__pfet_g5v0d10v5#body = 2.100000e+00
m.xm11.msky130_fd_pr__pfet_g5v0d10v5#dbody = 2.100000e+00
m.xm11.msky130_fd_pr__pfet_g5v0d10v5#sbody = 2.100000e+00
m.xm12.msky130_fd_pr__pfet_g5v0d10v5#body = 2.100000e+00
m.xm12.msky130_fd_pr__pfet_g5v0d10v5#dbody = 2.100000e+00
m.xm12.msky130_fd_pr__pfet_g5v0d10v5#sbody = 2.100000e+00
m.xm13.msky130_fd_pr__nfet_g5v0d10v5#body = 4.822854e-12
m.xm13.msky130_fd_pr__nfet_g5v0d10v5#dbody = 1.205707e-11
m.xm13.msky130_fd_pr__nfet_g5v0d10v5#sbody = 2.411494e-12
m.xm14.msky130_fd_pr__pfet_g5v0d10v5#body = 2.100000e+00
m.xm14.msky130_fd_pr__pfet_g5v0d10v5#dbody = 2.100000e+00
m.xm14.msky130_fd_pr__pfet_g5v0d10v5#sbody = 2.100000e+00
m.xm15.msky130_fd_pr__nfet_g5v0d10v5#body = 7.919906e-15
m.xm15.msky130_fd_pr__nfet_g5v0d10v5#dbody = 1.979939e-14
m.xm15.msky130_fd_pr__nfet_g5v0d10v5#sbody = 3.960328e-15
m.xm16.msky130_fd_pr__nfet_g5v0d10v5#body = 5.007111e-11
m.xm16.msky130_fd_pr__nfet_g5v0d10v5#dbody = 8.809002e-11
m.xm16.msky130_fd_pr__nfet_g5v0d10v5#sbody = 6.212332e-11
m.xm17.msky130_fd_pr__pfet_g5v0d10v5#body = 2.100000e+00
m.xm17.msky130_fd_pr__pfet_g5v0d10v5#dbody = 2.100000e+00
m.xm17.msky130_fd_pr__pfet_g5v0d10v5#sbody = 2.100000e+00
m.xm18.msky130_fd_pr__nfet_g5v0d10v5#body = 7.983892e-12
m.xm18.msky130_fd_pr__nfet_g5v0d10v5#dbody = 1.995966e-11
m.xm18.msky130_fd_pr__nfet_g5v0d10v5#sbody = 3.992019e-12
m.xm19.msky130_fd_pr__nfet_g5v0d10v5#body = 2.522906e-11
m.xm19.msky130_fd_pr__nfet_g5v0d10v5#dbody = 4.711561e-11
m.xm19.msky130_fd_pr__nfet_g5v0d10v5#sbody = 2.857157e-11
m.xm20.msky130_fd_pr__nfet_g5v0d10v5#body = 1.350915e-11
m.xm20.msky130_fd_pr__nfet_g5v0d10v5#dbody = 3.377278e-11
m.xm20.msky130_fd_pr__nfet_g5v0d10v5#sbody = 6.754650e-12
m.xm22.msky130_fd_pr__nfet_g5v0d10v5#body = 1.126925e-11
m.xm22.msky130_fd_pr__nfet_g5v0d10v5#dbody = 2.817302e-11
m.xm22.msky130_fd_pr__nfet_g5v0d10v5#sbody = 5.634734e-12
m.xm24.msky130_fd_pr__pfet_g5v0d10v5#body = 2.100000e+00
m.xm24.msky130_fd_pr__pfet_g5v0d10v5#dbody = 2.100000e+00
m.xm24.msky130_fd_pr__pfet_g5v0d10v5#sbody = 2.100000e+00
m.xm26.msky130_fd_pr__pfet_g5v0d10v5#body = 2.100000e+00
m.xm26.msky130_fd_pr__pfet_g5v0d10v5#dbody = 2.100000e+00
m.xm26.msky130_fd_pr__pfet_g5v0d10v5#sbody = 2.100000e+00
mir = 9.481197e-01
net1 = 6.297920e-01
net2 = 1.528846e-05
net3 = 7.033366e-01
net4 = 2.167259e-01
net5 = 9.578646e-01
net6 = 9.006484e-01
net7 = 7.032379e-01
net8 = 1.045398e+00
net9 = 1.051500e+00
net10 = 2.274607e-01
net11 = 4.801742e-01
net12 = 4.801742e-01
net13 = 0.000000e+00
out = 4.801742e-01
pos = 1.098949e+00
q.xq2.qsky130_fd_pr__pnp_05v5_w0p68l0p68#collcx = 2.961636e-03
q.xq3.qsky130_fd_pr__pnp_05v5_w0p68l0p68#collcx = 3.738366e-04
q.xq4.qsky130_fd_pr__pnp_05v5_w0p68l0p68#collcx = 3.738366e-04
q.xq8.qsky130_fd_pr__pnp_05v5_w0p68l0p68#collcx = 3.738366e-04
q.xq10.qsky130_fd_pr__pnp_05v5_w0p68l0p68#collcx = 3.738366e-04
q.xq12.qsky130_fd_pr__pnp_05v5_w0p68l0p68#collcx = 3.738366e-04
q.xq14.qsky130_fd_pr__pnp_05v5_w0p68l0p68#collcx = 3.738366e-04
q.xq16.qsky130_fd_pr__pnp_05v5_w0p68l0p68#collcx = 3.738366e-04
q.xq18.qsky130_fd_pr__pnp_05v5_w0p68l0p68#collcx = 3.738366e-04
vb = 9.221941e-01
vdd = 2.100000e+00
vs#branch = -1.00485e-01
vt#branch = 0.000000e+00
xc1.a = 0.000000e+00
xc1.b1 = 0.000000e+00
xc3.a = 4.801742e-01
xc3.b1 = 4.801742e-01
xr1.xsky130_fd_pr__res_xhigh_po_0p69.ra = 7.091875e-01
xr2.xsky130_fd_pr__res_xhigh_po_0p69.ra = 7.092862e-01
xr3.xsky130_fd_pr__res_xhigh_po_0p69.ra = 3.640341e-03
xr4.xsky130_fd_pr__res_xhigh_po_0p69.ra = 6.321700e-01
xr5.xsky130_fd_pr__res_xhigh_po_0p69.ra = 3.639800e-03
xr6.xsky130_fd_pr__res_xhigh_po_0p69.ra = 6.291940e-03
xr7.xsky130_fd_pr__res_xhigh_po_0p69.ra = 4.801742e-01
xr8.xsky130_fd_pr__res_xhigh_po_0p69.ra = 1.108506e+00
xr9.xsky130_fd_pr__res_xhigh_po_0p69.ra = 9.865805e-03
Doing analysis at TEMP = 85.000000 and TNOM = 27.000000


No. of Data Rows : 91
Error: no such vector PM
Note: Starting true gmin stepping
Trying gmin =   1.0000E-03 Note: One successful gmin step
Trying gmin =   1.0000E-04 Note: One successful gmin step
Trying gmin =   1.0000E-05 Note: One successful gmin step
Trying gmin =   1.0000E-06 Note: One successful gmin step
Trying gmin =   1.0000E-07 Note: One successful gmin step
Trying gmin =   1.0000E-08 Warning: Further gmin increment
Trying gmin =   5.6234E-08 Note: One successful gmin step
Trying gmin =   2.3714E-08 Note: One successful gmin step
Trying gmin =   6.4938E-09 Note: One successful gmin step
Trying gmin =   9.3057E-10 Warning: Further gmin increment
Trying gmin =   3.9954E-09 Note: One successful gmin step
Trying gmin =   1.9282E-09 Warning: Further gmin increment
Trying gmin =   3.3301E-09 Note: One successful gmin step
Trying gmin =   2.5340E-09 Note: One successful gmin step
Trying gmin =   1.6820E-09 Note: One successful gmin step
Trying gmin =   9.0962E-10 Note: One successful gmin step
Trying gmin =   3.6175E-10 Note: One successful gmin step
Trying gmin =   9.0726E-11 Note: One successful gmin step
Trying gmin =   1.1395E-11 Note: One successful gmin step
Trying gmin =   1.1395E-12 Note: One successful gmin step
Trying gmin =   1.0000E-12 Note: One successful gmin step
Note: True gmin stepping completed
 Reference value :  1.14000e+00Note: Starting true gmin stepping
Trying gmin =   1.0000E-03 Note: One successful gmin step
Trying gmin =   1.0000E-04 Note: One successful gmin step
Trying gmin =   1.0000E-05 Note: One successful gmin step
Trying gmin =   1.0000E-06 Note: One successful gmin step
Trying gmin =   1.0000E-07 Note: One successful gmin step
Trying gmin =   1.0000E-08 Note: One successful gmin step
Trying gmin =   1.0000E-09 Warning: Further gmin increment
Trying gmin =   5.6234E-09 Note: One successful gmin step
Trying gmin =   2.3714E-09 Warning: Further gmin increment
Trying gmin =   4.5316E-09 Note: One successful gmin step
Trying gmin =   3.2781E-09 Note: One successful gmin step
Trying gmin =   2.0169E-09 Note: One successful gmin step
Trying gmin =   9.7338E-10 Note: One successful gmin step
Trying gmin =   3.2634E-10 Note: One successful gmin step
Trying gmin =   6.3352E-11 Note: One successful gmin step
Trying gmin =   6.3352E-12 Note: One successful gmin step
Trying gmin =   1.0000E-12 Note: One successful gmin step
Note: True gmin stepping completed
 Reference value :  2.20000e-01
Error: measure  pm  (AT) : out of interval
 meas ac pm find p when vdb(ldo_out)=0 failed!

Doing analysis at TEMP = 85.000000 and TNOM = 27.000000


No. of Data Rows : 91
psrr100             =  -4.603615e+01
psrr100k            =  -1.622259e+01
Doing analysis at TEMP = 85.000000 and TNOM = 27.000000


No. of Data Rows : 86
temp_coeff = 3.397999e+01
Doing analysis at TEMP = 85.000000 and TNOM = 27.000000


No. of Data Rows : 141
vldo_sup_2          =  1.804726e+00
vldo_sup_2_8        =  1.807919e+00
line_reg = 3.991250e-03
Note: No ".plot", ".print", or ".fourier" lines; no simulations run
vin                 =  1.948150e+00
dropout = 1.841500e-01
