 Reference value :  0.00000e+00
No compatibility mode selected!


Circuit: * ldo netlist 

Doing analysis at TEMP = 85.000000 and TNOM = 27.000000


No. of Data Rows : 1
bg_out = 1.197599e+00
inn = 1.143331e+00
inp = 1.143321e+00
l1#branch = 0.000000e+00
ldo_out = 1.801259e+00
m.xm1.msky130_fd_pr__nfet_g5v0d10v5#body = 3.038276e-11
m.xm1.msky130_fd_pr__nfet_g5v0d10v5#dbody = 5.718328e-11
m.xm1.msky130_fd_pr__nfet_g5v0d10v5#sbody = 3.396500e-11
m.xm2.msky130_fd_pr__pfet_g5v0d10v5#body = 2.500000e+00
m.xm2.msky130_fd_pr__pfet_g5v0d10v5#dbody = 2.500000e+00
m.xm2.msky130_fd_pr__pfet_g5v0d10v5#sbody = 2.500000e+00
m.xm3.msky130_fd_pr__pfet_g5v0d10v5#body = 2.500000e+00
m.xm3.msky130_fd_pr__pfet_g5v0d10v5#dbody = 2.500000e+00
m.xm3.msky130_fd_pr__pfet_g5v0d10v5#sbody = 2.500000e+00
m.xm4.msky130_fd_pr__pfet_g5v0d10v5#body = 2.500000e+00
m.xm4.msky130_fd_pr__pfet_g5v0d10v5#dbody = 2.500000e+00
m.xm4.msky130_fd_pr__pfet_g5v0d10v5#sbody = 2.500000e+00
m.xm5.msky130_fd_pr__pfet_g5v0d10v5#body = 2.500000e+00
m.xm5.msky130_fd_pr__pfet_g5v0d10v5#dbody = 2.500000e+00
m.xm5.msky130_fd_pr__pfet_g5v0d10v5#sbody = 2.500000e+00
m.xm6.msky130_fd_pr__nfet_g5v0d10v5#body = 1.904338e-11
m.xm6.msky130_fd_pr__nfet_g5v0d10v5#dbody = 4.760835e-11
m.xm6.msky130_fd_pr__nfet_g5v0d10v5#sbody = 9.521800e-12
m.xm7.msky130_fd_pr__pfet_g5v0d10v5#body = 2.500000e+00
m.xm7.msky130_fd_pr__pfet_g5v0d10v5#dbody = 2.500000e+00
m.xm7.msky130_fd_pr__pfet_g5v0d10v5#sbody = 2.500000e+00
m.xm8.msky130_fd_pr__pfet_g5v0d10v5#body = 2.500000e+00
m.xm8.msky130_fd_pr__pfet_g5v0d10v5#dbody = 2.500000e+00
m.xm8.msky130_fd_pr__pfet_g5v0d10v5#sbody = 2.500000e+00
m.xm9.msky130_fd_pr__nfet_g5v0d10v5#body = 2.859866e-11
m.xm9.msky130_fd_pr__nfet_g5v0d10v5#dbody = 5.537268e-11
m.xm9.msky130_fd_pr__nfet_g5v0d10v5#sbody = 3.042331e-11
m.xm10.msky130_fd_pr__nfet_g5v0d10v5#body = 2.851666e-11
m.xm10.msky130_fd_pr__nfet_g5v0d10v5#dbody = 5.516766e-11
m.xm10.msky130_fd_pr__nfet_g5v0d10v5#sbody = 3.038231e-11
m.xm11.msky130_fd_pr__pfet_g5v0d10v5#body = 2.500000e+00
m.xm11.msky130_fd_pr__pfet_g5v0d10v5#dbody = 2.500000e+00
m.xm11.msky130_fd_pr__pfet_g5v0d10v5#sbody = 2.500000e+00
m.xm12.msky130_fd_pr__pfet_g5v0d10v5#body = 2.500000e+00
m.xm12.msky130_fd_pr__pfet_g5v0d10v5#dbody = 2.500000e+00
m.xm12.msky130_fd_pr__pfet_g5v0d10v5#sbody = 2.500000e+00
m.xm13.msky130_fd_pr__nfet_g5v0d10v5#body = 6.414277e-12
m.xm13.msky130_fd_pr__nfet_g5v0d10v5#dbody = 1.603563e-11
m.xm13.msky130_fd_pr__nfet_g5v0d10v5#sbody = 3.207204e-12
m.xm14.msky130_fd_pr__pfet_g5v0d10v5#body = 2.500000e+00
m.xm14.msky130_fd_pr__pfet_g5v0d10v5#dbody = 2.500000e+00
m.xm14.msky130_fd_pr__pfet_g5v0d10v5#sbody = 2.500000e+00
m.xm15.msky130_fd_pr__nfet_g5v0d10v5#body = 1.438090e-14
m.xm15.msky130_fd_pr__nfet_g5v0d10v5#dbody = 3.595104e-14
m.xm15.msky130_fd_pr__nfet_g5v0d10v5#sbody = 7.191670e-15
m.xm16.msky130_fd_pr__nfet_g5v0d10v5#body = 5.602201e-11
m.xm16.msky130_fd_pr__nfet_g5v0d10v5#dbody = 1.009914e-10
m.xm16.msky130_fd_pr__nfet_g5v0d10v5#sbody = 6.707466e-11
m.xm17.msky130_fd_pr__pfet_g5v0d10v5#body = 2.500000e+00
m.xm17.msky130_fd_pr__pfet_g5v0d10v5#dbody = 2.500000e+00
m.xm17.msky130_fd_pr__pfet_g5v0d10v5#sbody = 2.500000e+00
m.xm18.msky130_fd_pr__nfet_g5v0d10v5#body = 1.339152e-11
m.xm18.msky130_fd_pr__nfet_g5v0d10v5#dbody = 3.347872e-11
m.xm18.msky130_fd_pr__nfet_g5v0d10v5#sbody = 6.695831e-12
m.xm19.msky130_fd_pr__nfet_g5v0d10v5#body = 3.039744e-11
m.xm19.msky130_fd_pr__nfet_g5v0d10v5#dbody = 5.721998e-11
m.xm19.msky130_fd_pr__nfet_g5v0d10v5#sbody = 3.397233e-11
m.xm20.msky130_fd_pr__nfet_g5v0d10v5#body = 1.231974e-11
m.xm20.msky130_fd_pr__nfet_g5v0d10v5#dbody = 3.079928e-11
m.xm20.msky130_fd_pr__nfet_g5v0d10v5#sbody = 6.159941e-12
m.xm22.msky130_fd_pr__nfet_g5v0d10v5#body = 1.268225e-11
m.xm22.msky130_fd_pr__nfet_g5v0d10v5#dbody = 3.170552e-11
m.xm22.msky130_fd_pr__nfet_g5v0d10v5#sbody = 6.341231e-12
m.xm24.msky130_fd_pr__pfet_g5v0d10v5#body = 2.500000e+00
m.xm24.msky130_fd_pr__pfet_g5v0d10v5#dbody = 2.500000e+00
m.xm24.msky130_fd_pr__pfet_g5v0d10v5#sbody = 2.500000e+00
m.xm26.msky130_fd_pr__pfet_g5v0d10v5#body = 2.500000e+00
m.xm26.msky130_fd_pr__pfet_g5v0d10v5#dbody = 2.500000e+00
m.xm26.msky130_fd_pr__pfet_g5v0d10v5#sbody = 2.500000e+00
mir = 1.260461e+00
net1 = 6.284925e-01
net2 = 2.782560e-05
net3 = 7.017435e-01
net4 = 3.317491e-01
net5 = 1.261636e+00
net6 = 8.406080e-01
net7 = 7.017332e-01
net8 = 1.348981e+00
net9 = 1.355541e+00
net10 = 3.575722e-01
net11 = 9.157480e-01
net12 = 9.157480e-01
net13 = 0.000000e+00
out = 9.157480e-01
pos = 1.197669e+00
q.xq2.qsky130_fd_pr__pnp_05v5_w0p68l0p68#collcx = 2.839383e-03
q.xq3.qsky130_fd_pr__pnp_05v5_w0p68l0p68#collcx = 3.581664e-04
q.xq4.qsky130_fd_pr__pnp_05v5_w0p68l0p68#collcx = 3.581664e-04
q.xq8.qsky130_fd_pr__pnp_05v5_w0p68l0p68#collcx = 3.581664e-04
q.xq10.qsky130_fd_pr__pnp_05v5_w0p68l0p68#collcx = 3.581664e-04
q.xq12.qsky130_fd_pr__pnp_05v5_w0p68l0p68#collcx = 3.581664e-04
q.xq14.qsky130_fd_pr__pnp_05v5_w0p68l0p68#collcx = 3.581664e-04
q.xq16.qsky130_fd_pr__pnp_05v5_w0p68l0p68#collcx = 3.581664e-04
q.xq18.qsky130_fd_pr__pnp_05v5_w0p68l0p68#collcx = 3.581664e-04
vb = 8.300057e-01
vdd = 2.500000e+00
vs#branch = -1.00202e-01
vt#branch = 0.000000e+00
xc1.a = 0.000000e+00
xc1.b1 = 0.000000e+00
xc3.a = 9.157480e-01
xc3.b1 = 9.157480e-01
xr1.xsky130_fd_pr__res_xhigh_po_0p69.ra = 7.099643e-01
xr2.xsky130_fd_pr__res_xhigh_po_0p69.ra = 7.099745e-01
xr3.xsky130_fd_pr__res_xhigh_po_0p69.ra = 4.908983e-03
xr4.xsky130_fd_pr__res_xhigh_po_0p69.ra = 6.318603e-01
xr5.xsky130_fd_pr__res_xhigh_po_0p69.ra = 4.908908e-03
xr6.xsky130_fd_pr__res_xhigh_po_0p69.ra = 8.719234e-03
xr7.xsky130_fd_pr__res_xhigh_po_0p69.ra = 9.157480e-01
xr8.xsky130_fd_pr__res_xhigh_po_0p69.ra = 1.212167e+00
xr9.xsky130_fd_pr__res_xhigh_po_0p69.ra = 1.520667e-02
Doing analysis at TEMP = 85.000000 and TNOM = 27.000000


No. of Data Rows : 91
Note: Starting true gmin stepping
Trying gmin =   1.0000E-03 Note: One successful gmin step
Trying gmin =   1.0000E-04 Note: One successful gmin step
Trying gmin =   1.0000E-05 Note: One successful gmin step
Trying gmin =   1.0000E-06 Note: One successful gmin step
Trying gmin =   1.0000E-07 Note: One successful gmin step
Trying gmin =   1.0000E-08 Note: One successful gmin step
Trying gmin =   1.0000E-09 Note: One successful gmin step
Trying gmin =   1.0000E-10 Note: One successful gmin step
Trying gmin =   1.0000E-11 Note: One successful gmin step
Trying gmin =   1.0000E-12 Note: One successful gmin step
Trying gmin =   1.0000E-12 Note: One successful gmin step
Note: True gmin stepping completed
Note: Starting true gmin stepping
Trying gmin =   1.0000E-03 Note: One successful gmin step
Trying gmin =   1.0000E-04 Note: One successful gmin step
Trying gmin =   1.0000E-05 Note: One successful gmin step
Trying gmin =   1.0000E-06 Note: One successful gmin step
Trying gmin =   1.0000E-07 Note: One successful gmin step
Trying gmin =   1.0000E-08 Note: One successful gmin step
Trying gmin =   3.1623E-09 Note: One successful gmin step
Trying gmin =   5.6234E-10 Note: One successful gmin step
Trying gmin =   5.6234E-11 Note: One successful gmin step
Trying gmin =   5.6234E-12 Note: One successful gmin step
Trying gmin =   1.0000E-12 Note: One successful gmin step
Note: True gmin stepping completed
 Reference value :  1.24000e+00pm                  =  1.168293e+02
Doing analysis at TEMP = 85.000000 and TNOM = 27.000000


No. of Data Rows : 91
psrr100             =  -5.317069e+01
psrr100k            =  -2.359966e+01
Doing analysis at TEMP = 85.000000 and TNOM = 27.000000


No. of Data Rows : 86
temp_coeff = 1.098282e+02
Doing analysis at TEMP = 85.000000 and TNOM = 27.000000


No. of Data Rows : 141
vldo_sup_2          =  1.771804e+00
vldo_sup_2_8        =  1.802025e+00
line_reg = 3.777625e-02
Note: No ".plot", ".print", or ".fourier" lines; no simulations run
vin                 =  1.992803e+00
dropout = 2.288030e-01
