 Reference value :  0.00000e+00
No compatibility mode selected!


Circuit: * ldo netlist 

Doing analysis at TEMP = 85.000000 and TNOM = 27.000000


No. of Data Rows : 1
bg_out = 1.203226e+00
inn = 1.149913e+00
inp = 1.149854e+00
l1#branch = 0.000000e+00
ldo_out = 1.810778e+00
m.xm1.msky130_fd_pr__nfet_g5v0d10v5#body = 2.898630e-11
m.xm1.msky130_fd_pr__nfet_g5v0d10v5#dbody = 5.606204e-11
m.xm1.msky130_fd_pr__nfet_g5v0d10v5#sbody = 3.089687e-11
m.xm2.msky130_fd_pr__pfet_g5v0d10v5#body = 2.300000e+00
m.xm2.msky130_fd_pr__pfet_g5v0d10v5#dbody = 2.300000e+00
m.xm2.msky130_fd_pr__pfet_g5v0d10v5#sbody = 2.300000e+00
m.xm3.msky130_fd_pr__pfet_g5v0d10v5#body = 2.300000e+00
m.xm3.msky130_fd_pr__pfet_g5v0d10v5#dbody = 2.300000e+00
m.xm3.msky130_fd_pr__pfet_g5v0d10v5#sbody = 2.300000e+00
m.xm4.msky130_fd_pr__pfet_g5v0d10v5#body = 2.300000e+00
m.xm4.msky130_fd_pr__pfet_g5v0d10v5#dbody = 2.300000e+00
m.xm4.msky130_fd_pr__pfet_g5v0d10v5#sbody = 2.300000e+00
m.xm5.msky130_fd_pr__pfet_g5v0d10v5#body = 2.300000e+00
m.xm5.msky130_fd_pr__pfet_g5v0d10v5#dbody = 2.300000e+00
m.xm5.msky130_fd_pr__pfet_g5v0d10v5#sbody = 2.300000e+00
m.xm6.msky130_fd_pr__nfet_g5v0d10v5#body = 2.056386e-11
m.xm6.msky130_fd_pr__nfet_g5v0d10v5#dbody = 5.140954e-11
m.xm6.msky130_fd_pr__nfet_g5v0d10v5#sbody = 1.028205e-11
m.xm7.msky130_fd_pr__pfet_g5v0d10v5#body = 2.300000e+00
m.xm7.msky130_fd_pr__pfet_g5v0d10v5#dbody = 2.300000e+00
m.xm7.msky130_fd_pr__pfet_g5v0d10v5#sbody = 2.300000e+00
m.xm8.msky130_fd_pr__pfet_g5v0d10v5#body = 2.300000e+00
m.xm8.msky130_fd_pr__pfet_g5v0d10v5#dbody = 2.300000e+00
m.xm8.msky130_fd_pr__pfet_g5v0d10v5#sbody = 2.300000e+00
m.xm9.msky130_fd_pr__nfet_g5v0d10v5#body = 2.719572e-11
m.xm9.msky130_fd_pr__nfet_g5v0d10v5#dbody = 5.440583e-11
m.xm9.msky130_fd_pr__nfet_g5v0d10v5#sbody = 2.718133e-11
m.xm10.msky130_fd_pr__nfet_g5v0d10v5#body = 2.703953e-11
m.xm10.msky130_fd_pr__nfet_g5v0d10v5#dbody = 5.401536e-11
m.xm10.msky130_fd_pr__nfet_g5v0d10v5#sbody = 2.710324e-11
m.xm11.msky130_fd_pr__pfet_g5v0d10v5#body = 2.300000e+00
m.xm11.msky130_fd_pr__pfet_g5v0d10v5#dbody = 2.300000e+00
m.xm11.msky130_fd_pr__pfet_g5v0d10v5#sbody = 2.300000e+00
m.xm12.msky130_fd_pr__pfet_g5v0d10v5#body = 2.300000e+00
m.xm12.msky130_fd_pr__pfet_g5v0d10v5#dbody = 2.300000e+00
m.xm12.msky130_fd_pr__pfet_g5v0d10v5#sbody = 2.300000e+00
m.xm13.msky130_fd_pr__nfet_g5v0d10v5#body = 5.144880e-12
m.xm13.msky130_fd_pr__nfet_g5v0d10v5#dbody = 1.286213e-11
m.xm13.msky130_fd_pr__nfet_g5v0d10v5#sbody = 2.572509e-12
m.xm14.msky130_fd_pr__pfet_g5v0d10v5#body = 2.300000e+00
m.xm14.msky130_fd_pr__pfet_g5v0d10v5#dbody = 2.300000e+00
m.xm14.msky130_fd_pr__pfet_g5v0d10v5#sbody = 2.300000e+00
m.xm15.msky130_fd_pr__nfet_g5v0d10v5#body = 3.493722e-14
m.xm15.msky130_fd_pr__nfet_g5v0d10v5#dbody = 8.734160e-14
m.xm15.msky130_fd_pr__nfet_g5v0d10v5#sbody = 1.747004e-14
m.xm16.msky130_fd_pr__nfet_g5v0d10v5#body = 5.375247e-11
m.xm16.msky130_fd_pr__nfet_g5v0d10v5#dbody = 9.500480e-11
m.xm16.msky130_fd_pr__nfet_g5v0d10v5#sbody = 6.625262e-11
m.xm17.msky130_fd_pr__pfet_g5v0d10v5#body = 2.300000e+00
m.xm17.msky130_fd_pr__pfet_g5v0d10v5#dbody = 2.300000e+00
m.xm17.msky130_fd_pr__pfet_g5v0d10v5#sbody = 2.300000e+00
m.xm18.msky130_fd_pr__nfet_g5v0d10v5#body = 1.428742e-11
m.xm18.msky130_fd_pr__nfet_g5v0d10v5#dbody = 3.571847e-11
m.xm18.msky130_fd_pr__nfet_g5v0d10v5#sbody = 7.143789e-12
m.xm19.msky130_fd_pr__nfet_g5v0d10v5#body = 2.907299e-11
m.xm19.msky130_fd_pr__nfet_g5v0d10v5#dbody = 5.627876e-11
m.xm19.msky130_fd_pr__nfet_g5v0d10v5#sbody = 3.094021e-11
m.xm20.msky130_fd_pr__nfet_g5v0d10v5#body = 1.462732e-11
m.xm20.msky130_fd_pr__nfet_g5v0d10v5#dbody = 3.656821e-11
m.xm20.msky130_fd_pr__nfet_g5v0d10v5#sbody = 7.313738e-12
m.xm22.msky130_fd_pr__nfet_g5v0d10v5#body = 1.149433e-11
m.xm22.msky130_fd_pr__nfet_g5v0d10v5#dbody = 2.873572e-11
m.xm22.msky130_fd_pr__nfet_g5v0d10v5#sbody = 5.747278e-12
m.xm24.msky130_fd_pr__pfet_g5v0d10v5#body = 2.300000e+00
m.xm24.msky130_fd_pr__pfet_g5v0d10v5#dbody = 2.300000e+00
m.xm24.msky130_fd_pr__pfet_g5v0d10v5#sbody = 2.300000e+00
m.xm26.msky130_fd_pr__pfet_g5v0d10v5#body = 2.300000e+00
m.xm26.msky130_fd_pr__pfet_g5v0d10v5#dbody = 2.300000e+00
m.xm26.msky130_fd_pr__pfet_g5v0d10v5#sbody = 2.300000e+00
mir = 1.237613e+00
net1 = 6.313938e-01
net2 = 6.734883e-05
net3 = 7.052235e-01
net4 = 2.314089e-01
net5 = 1.244548e+00
net6 = 9.563183e-01
net7 = 7.051634e-01
net8 = 1.326503e+00
net9 = 1.338998e+00
net10 = 2.501766e-01
net11 = 9.814922e-01
net12 = 9.814922e-01
net13 = 0.000000e+00
out = 9.814922e-01
pos = 1.203363e+00
q.xq2.qsky130_fd_pr__pnp_05v5_w0p68l0p68#collcx = 3.100305e-03
q.xq3.qsky130_fd_pr__pnp_05v5_w0p68l0p68#collcx = 3.914769e-04
q.xq4.qsky130_fd_pr__pnp_05v5_w0p68l0p68#collcx = 3.914769e-04
q.xq8.qsky130_fd_pr__pnp_05v5_w0p68l0p68#collcx = 3.914769e-04
q.xq10.qsky130_fd_pr__pnp_05v5_w0p68l0p68#collcx = 3.914769e-04
q.xq12.qsky130_fd_pr__pnp_05v5_w0p68l0p68#collcx = 3.914769e-04
q.xq14.qsky130_fd_pr__pnp_05v5_w0p68l0p68#collcx = 3.914769e-04
q.xq16.qsky130_fd_pr__pnp_05v5_w0p68l0p68#collcx = 3.914769e-04
q.xq18.qsky130_fd_pr__pnp_05v5_w0p68l0p68#collcx = 3.914769e-04
vb = 1.008684e+00
vdd = 2.300000e+00
vs#branch = -1.00742e-01
vt#branch = 0.000000e+00
xc1.a = 0.000000e+00
xc1.b1 = 0.000000e+00
xc3.a = 9.814922e-01
xc3.b1 = 9.814922e-01
xr1.xsky130_fd_pr__res_xhigh_po_0p69.ra = 7.083383e-01
xr2.xsky130_fd_pr__res_xhigh_po_0p69.ra = 7.083984e-01
xr3.xsky130_fd_pr__res_xhigh_po_0p69.ra = 1.893449e-03
xr4.xsky130_fd_pr__res_xhigh_po_0p69.ra = 6.326930e-01
xr5.xsky130_fd_pr__res_xhigh_po_0p69.ra = 1.893278e-03
xr6.xsky130_fd_pr__res_xhigh_po_0p69.ra = 3.363269e-03
xr7.xsky130_fd_pr__res_xhigh_po_0p69.ra = 9.814922e-01
xr8.xsky130_fd_pr__res_xhigh_po_0p69.ra = 1.208951e+00
xr9.xsky130_fd_pr__res_xhigh_po_0p69.ra = 5.861560e-03
Doing analysis at TEMP = 85.000000 and TNOM = 27.000000


No. of Data Rows : 91
Note: Starting true gmin stepping
Trying gmin =   1.0000E-03 Note: One successful gmin step
Trying gmin =   1.0000E-04 Note: One successful gmin step
Trying gmin =   1.0000E-05 Note: One successful gmin step
Trying gmin =   1.0000E-06 Note: One successful gmin step
Trying gmin =   1.0000E-07 Warning: Further gmin increment
Trying gmin =   5.6234E-07 Note: One successful gmin step
Trying gmin =   2.3714E-07 Note: One successful gmin step
Trying gmin =   6.4938E-08 Warning: Further gmin increment
Trying gmin =   1.7154E-07 Note: One successful gmin step
Trying gmin =   1.0554E-07 Warning: Further gmin increment
Trying gmin =   1.5193E-07 Warning: Further gmin increment
Trying gmin =   1.6641E-07 Note: One successful gmin step
Trying gmin =   1.5901E-07 Warning: Further gmin increment
Trying gmin =   1.6453E-07 Note: One successful gmin step
Trying gmin =   1.6175E-07 Warning: Further gmin increment
Trying gmin =   1.6383E-07 Note: One successful gmin step
Trying gmin =   1.6278E-07 Warning: Further gmin increment
Trying gmin =   1.6357E-07 Note: One successful gmin step
Trying gmin =   1.6318E-07 Warning: Further gmin increment
Trying gmin =   1.6347E-07 Note: One successful gmin step
Trying gmin =   1.6332E-07 Warning: Further gmin increment
Trying gmin =   1.6343E-07 Note: One successful gmin step
Trying gmin =   1.6338E-07 Note: One successful gmin step
Trying gmin =   1.6330E-07 Warning: Further gmin increment
Trying gmin =   1.6336E-07 Warning: Further gmin increment
Trying gmin =   1.6337E-07 Note: One successful gmin step
Trying gmin =   1.6336E-07 Note: One successful gmin step
Trying gmin =   1.6335E-07 Warning: Further gmin increment
Trying gmin =   1.6336E-07 Note: One successful gmin step
Trying gmin =   1.6336E-07 Warning: Last gmin step failed
Warning: True gmin stepping failed
Note: Starting dynamic gmin stepping
Trying gmin =   1.0000E-03 Note: One successful gmin step
Trying gmin =   1.0000E-04 Note: One successful gmin step
Trying gmin =   1.0000E-05 Note: One successful gmin step
Trying gmin =   1.0000E-06 Note: One successful gmin step
Trying gmin =   1.0000E-07 Note: One successful gmin step
Trying gmin =   1.0000E-08 Note: One successful gmin step
Trying gmin =   1.0000E-09 Note: One successful gmin step
Trying gmin =   1.0000E-10 Note: One successful gmin step
Trying gmin =   1.0000E-11 Note: One successful gmin step
Trying gmin =   1.0000E-12 Note: One successful gmin step
Trying gmin =   1.0000E-12 Note: One successful gmin step
Note: Dynamic gmin stepping completed
 Reference value :  2.80000e+00Note: Starting true gmin stepping
Trying gmin =   1.0000E-03 Note: One successful gmin step
Trying gmin =   1.0000E-04 Note: One successful gmin step
Trying gmin =   1.0000E-05 Note: One successful gmin step
Trying gmin =   1.0000E-06 Note: One successful gmin step
Trying gmin =   1.0000E-07 Note: One successful gmin step
Trying gmin =   1.0000E-08 Note: One successful gmin step
Trying gmin =   3.1623E-09 Note: One successful gmin step
Trying gmin =   5.6234E-10 Note: One successful gmin step
Trying gmin =   2.3714E-10 Warning: Further gmin increment
Trying gmin =   4.5316E-10 Note: One successful gmin step
Trying gmin =   3.2781E-10 Note: One successful gmin step
Trying gmin =   2.0169E-10 Note: One successful gmin step
Trying gmin =   9.7338E-11 Note: One successful gmin step
Trying gmin =   3.2634E-11 Note: One successful gmin step
Trying gmin =   6.3352E-12 Note: One successful gmin step
Trying gmin =   1.0000E-12 Note: One successful gmin step
Note: True gmin stepping completed
Note: Starting true gmin stepping
Trying gmin =   1.0000E-03 Note: One successful gmin step
Trying gmin =   1.0000E-04 Note: One successful gmin step
Trying gmin =   1.0000E-05 Note: One successful gmin step
Trying gmin =   1.0000E-06 Note: One successful gmin step
Trying gmin =   1.0000E-07 Note: One successful gmin step
Trying gmin =   1.0000E-08 Note: One successful gmin step
Trying gmin =   1.0000E-09 Note: One successful gmin step
Trying gmin =   1.0000E-10 Note: One successful gmin step
Trying gmin =   3.1623E-11 Note: One successful gmin step
Trying gmin =   5.6234E-12 Note: One successful gmin step
Trying gmin =   1.0000E-12 Note: One successful gmin step
Note: True gmin stepping completed
 Reference value :  1.04000e+00pm                  =  1.441807e+02
Doing analysis at TEMP = 85.000000 and TNOM = 27.000000


No. of Data Rows : 91
psrr100             =  -5.010981e+01
psrr100k            =  -2.269767e+01
Doing analysis at TEMP = 85.000000 and TNOM = 27.000000


No. of Data Rows : 86
temp_coeff = 1.624866e+02
Doing analysis at TEMP = 85.000000 and TNOM = 27.000000


No. of Data Rows : 141
vldo_sup_2          =  1.809425e+00
vldo_sup_2_8        =  1.812011e+00
line_reg = 3.232500e-03
Note: No ".plot", ".print", or ".fourier" lines; no simulations run
vin                 =  1.916112e+00
dropout = 1.521120e-01
