 Reference value :  0.00000e+00
No compatibility mode selected!


Circuit: * ldo netlist 

Doing analysis at TEMP = 27.000000 and TNOM = 27.000000


No. of Data Rows : 1
bg_out = 1.095946e+00
inn = 1.139595e+00
inp = 1.139563e+00
l1#branch = 0.000000e+00
ldo_out = 1.800777e+00
m.xm1.msky130_fd_pr__nfet_g5v0d10v5#body = 1.580910e-11
m.xm1.msky130_fd_pr__nfet_g5v0d10v5#dbody = 3.259643e-11
m.xm1.msky130_fd_pr__nfet_g5v0d10v5#sbody = 1.483087e-11
m.xm2.msky130_fd_pr__pfet_g5v0d10v5#body = 2.300000e+00
m.xm2.msky130_fd_pr__pfet_g5v0d10v5#dbody = 2.300000e+00
m.xm2.msky130_fd_pr__pfet_g5v0d10v5#sbody = 2.300000e+00
m.xm3.msky130_fd_pr__pfet_g5v0d10v5#body = 2.300000e+00
m.xm3.msky130_fd_pr__pfet_g5v0d10v5#dbody = 2.300000e+00
m.xm3.msky130_fd_pr__pfet_g5v0d10v5#sbody = 2.300000e+00
m.xm4.msky130_fd_pr__pfet_g5v0d10v5#body = 2.300000e+00
m.xm4.msky130_fd_pr__pfet_g5v0d10v5#dbody = 2.300000e+00
m.xm4.msky130_fd_pr__pfet_g5v0d10v5#sbody = 2.300000e+00
m.xm5.msky130_fd_pr__pfet_g5v0d10v5#body = 2.300000e+00
m.xm5.msky130_fd_pr__pfet_g5v0d10v5#dbody = 2.300000e+00
m.xm5.msky130_fd_pr__pfet_g5v0d10v5#sbody = 2.300000e+00
m.xm6.msky130_fd_pr__nfet_g5v0d10v5#body = 1.110251e-11
m.xm6.msky130_fd_pr__nfet_g5v0d10v5#dbody = 2.775626e-11
m.xm6.msky130_fd_pr__nfet_g5v0d10v5#sbody = 5.551258e-12
m.xm7.msky130_fd_pr__pfet_g5v0d10v5#body = 2.300000e+00
m.xm7.msky130_fd_pr__pfet_g5v0d10v5#dbody = 2.300000e+00
m.xm7.msky130_fd_pr__pfet_g5v0d10v5#sbody = 2.300000e+00
m.xm8.msky130_fd_pr__pfet_g5v0d10v5#body = 2.300000e+00
m.xm8.msky130_fd_pr__pfet_g5v0d10v5#dbody = 2.300000e+00
m.xm8.msky130_fd_pr__pfet_g5v0d10v5#sbody = 2.300000e+00
m.xm9.msky130_fd_pr__nfet_g5v0d10v5#body = 1.641752e-11
m.xm9.msky130_fd_pr__nfet_g5v0d10v5#dbody = 3.520225e-11
m.xm9.msky130_fd_pr__nfet_g5v0d10v5#sbody = 1.405031e-11
m.xm10.msky130_fd_pr__nfet_g5v0d10v5#body = 1.631799e-11
m.xm10.msky130_fd_pr__nfet_g5v0d10v5#dbody = 3.495343e-11
m.xm10.msky130_fd_pr__nfet_g5v0d10v5#sbody = 1.400054e-11
m.xm11.msky130_fd_pr__pfet_g5v0d10v5#body = 2.300000e+00
m.xm11.msky130_fd_pr__pfet_g5v0d10v5#dbody = 2.300000e+00
m.xm11.msky130_fd_pr__pfet_g5v0d10v5#sbody = 2.300000e+00
m.xm12.msky130_fd_pr__pfet_g5v0d10v5#body = 2.300000e+00
m.xm12.msky130_fd_pr__pfet_g5v0d10v5#dbody = 2.300000e+00
m.xm12.msky130_fd_pr__pfet_g5v0d10v5#sbody = 2.300000e+00
m.xm13.msky130_fd_pr__nfet_g5v0d10v5#body = 2.919417e-12
m.xm13.msky130_fd_pr__nfet_g5v0d10v5#dbody = 7.298531e-12
m.xm13.msky130_fd_pr__nfet_g5v0d10v5#sbody = 1.459719e-12
m.xm14.msky130_fd_pr__pfet_g5v0d10v5#body = 2.300000e+00
m.xm14.msky130_fd_pr__pfet_g5v0d10v5#dbody = 2.300000e+00
m.xm14.msky130_fd_pr__pfet_g5v0d10v5#sbody = 2.300000e+00
m.xm15.msky130_fd_pr__nfet_g5v0d10v5#body = 1.428164e-16
m.xm15.msky130_fd_pr__nfet_g5v0d10v5#dbody = 3.570300e-16
m.xm15.msky130_fd_pr__nfet_g5v0d10v5#sbody = 7.141923e-17
m.xm16.msky130_fd_pr__nfet_g5v0d10v5#body = 4.300357e-11
m.xm16.msky130_fd_pr__nfet_g5v0d10v5#dbody = 7.901042e-11
m.xm16.msky130_fd_pr__nfet_g5v0d10v5#sbody = 5.000030e-11
m.xm17.msky130_fd_pr__pfet_g5v0d10v5#body = 2.300000e+00
m.xm17.msky130_fd_pr__pfet_g5v0d10v5#dbody = 2.300000e+00
m.xm17.msky130_fd_pr__pfet_g5v0d10v5#sbody = 2.300000e+00
m.xm18.msky130_fd_pr__nfet_g5v0d10v5#body = 7.993055e-12
m.xm18.msky130_fd_pr__nfet_g5v0d10v5#dbody = 1.998262e-11
m.xm18.msky130_fd_pr__nfet_g5v0d10v5#sbody = 3.996539e-12
m.xm19.msky130_fd_pr__nfet_g5v0d10v5#body = 1.585563e-11
m.xm19.msky130_fd_pr__nfet_g5v0d10v5#dbody = 3.271276e-11
m.xm19.msky130_fd_pr__nfet_g5v0d10v5#sbody = 1.485414e-11
m.xm20.msky130_fd_pr__nfet_g5v0d10v5#body = 1.101912e-11
m.xm20.msky130_fd_pr__nfet_g5v0d10v5#dbody = 2.754778e-11
m.xm20.msky130_fd_pr__nfet_g5v0d10v5#sbody = 5.509572e-12
m.xm22.msky130_fd_pr__nfet_g5v0d10v5#body = 3.465873e-12
m.xm22.msky130_fd_pr__nfet_g5v0d10v5#dbody = 8.664678e-12
m.xm22.msky130_fd_pr__nfet_g5v0d10v5#sbody = 1.732941e-12
m.xm24.msky130_fd_pr__pfet_g5v0d10v5#body = 2.300000e+00
m.xm24.msky130_fd_pr__pfet_g5v0d10v5#dbody = 2.300000e+00
m.xm24.msky130_fd_pr__pfet_g5v0d10v5#sbody = 2.300000e+00
m.xm26.msky130_fd_pr__pfet_g5v0d10v5#body = 2.300000e+00
m.xm26.msky130_fd_pr__pfet_g5v0d10v5#dbody = 2.300000e+00
m.xm26.msky130_fd_pr__pfet_g5v0d10v5#sbody = 2.300000e+00
mir = 9.873300e-01
net1 = 7.251322e-01
net2 = 1.098955e-05
net3 = 7.846798e-01
net4 = 2.767075e-01
net5 = 9.910527e-01
net6 = 8.876381e-01
net7 = 7.846468e-01
net8 = 1.071541e+00
net9 = 1.079503e+00
net10 = 2.334252e-01
net11 = 6.393162e-01
net12 = 6.393162e-01
net13 = 0.000000e+00
out = 6.393162e-01
pos = 1.096026e+00
q.xq2.qsky130_fd_pr__pnp_05v5_w0p68l0p68#collcx = 2.093610e-03
q.xq3.qsky130_fd_pr__pnp_05v5_w0p68l0p68#collcx = 2.636426e-04
q.xq4.qsky130_fd_pr__pnp_05v5_w0p68l0p68#collcx = 2.636426e-04
q.xq8.qsky130_fd_pr__pnp_05v5_w0p68l0p68#collcx = 2.636426e-04
q.xq10.qsky130_fd_pr__pnp_05v5_w0p68l0p68#collcx = 2.636426e-04
q.xq12.qsky130_fd_pr__pnp_05v5_w0p68l0p68#collcx = 2.636426e-04
q.xq14.qsky130_fd_pr__pnp_05v5_w0p68l0p68#collcx = 2.636426e-04
q.xq16.qsky130_fd_pr__pnp_05v5_w0p68l0p68#collcx = 2.636426e-04
q.xq18.qsky130_fd_pr__pnp_05v5_w0p68l0p68#collcx = 2.636426e-04
vb = 8.814013e-01
vdd = 2.300000e+00
vs#branch = -1.00165e-01
vt#branch = 0.000000e+00
xc1.a = 0.000000e+00
xc1.b1 = 0.000000e+00
xc3.a = 6.393162e-01
xc3.b1 = 6.393162e-01
xr1.xsky130_fd_pr__res_xhigh_po_0p69.ra = 7.924004e-01
xr2.xsky130_fd_pr__res_xhigh_po_0p69.ra = 7.924334e-01
xr3.xsky130_fd_pr__res_xhigh_po_0p69.ra = 5.363186e-03
xr4.xsky130_fd_pr__res_xhigh_po_0p69.ra = 7.276693e-01
xr5.xsky130_fd_pr__res_xhigh_po_0p69.ra = 5.362945e-03
xr6.xsky130_fd_pr__res_xhigh_po_0p69.ra = 8.229223e-03
xr7.xsky130_fd_pr__res_xhigh_po_0p69.ra = 6.393162e-01
xr8.xsky130_fd_pr__res_xhigh_po_0p69.ra = 1.108534e+00
xr9.xsky130_fd_pr__res_xhigh_po_0p69.ra = 1.291214e-02
Doing analysis at TEMP = 27.000000 and TNOM = 27.000000


No. of Data Rows : 91
Error: no such vector PM
Note: Starting true gmin stepping
Trying gmin =   1.0000E-03 Note: One successful gmin step
Trying gmin =   1.0000E-04 Note: One successful gmin step
Trying gmin =   1.0000E-05 Note: One successful gmin step
Trying gmin =   1.0000E-06 Note: One successful gmin step
Trying gmin =   1.0000E-07 Note: One successful gmin step
Trying gmin =   1.0000E-08 Note: One successful gmin step
Trying gmin =   1.0000E-09 Note: One successful gmin step
Trying gmin =   1.0000E-10 Note: One successful gmin step
Trying gmin =   1.0000E-11 Note: One successful gmin step
Trying gmin =   1.0000E-12 Note: One successful gmin step
Trying gmin =   1.0000E-12 Note: One successful gmin step
Note: True gmin stepping completed
Note: Starting true gmin stepping
Trying gmin =   1.0000E-03 Note: One successful gmin step
Trying gmin =   1.0000E-04 Note: One successful gmin step
Trying gmin =   1.0000E-05 Note: One successful gmin step
Trying gmin =   1.0000E-06 Note: One successful gmin step
Trying gmin =   1.0000E-07 Note: One successful gmin step
Trying gmin =   1.0000E-08 Note: One successful gmin step
Trying gmin =   3.1623E-09 Note: One successful gmin step
Trying gmin =   5.6234E-10 Note: One successful gmin step
Trying gmin =   5.6234E-11 Note: One successful gmin step
Trying gmin =   5.6234E-12 Note: One successful gmin step
Trying gmin =   1.0000E-12 Note: One successful gmin step
Note: True gmin stepping completed
 Reference value :  1.34000e+00
Error: measure  pm  (AT) : out of interval
 meas ac pm find p when vdb(ldo_out)=0 failed!

Doing analysis at TEMP = 27.000000 and TNOM = 27.000000


No. of Data Rows : 91
psrr100             =  -7.744724e+01
psrr100k            =  -2.580272e+01
Doing analysis at TEMP = 27.000000 and TNOM = 27.000000


No. of Data Rows : 86
temp_coeff = 2.763297e+01
Doing analysis at TEMP = 27.000000 and TNOM = 27.000000


No. of Data Rows : 141
vldo_sup_2          =  1.790627e+00
vldo_sup_2_8        =  1.800763e+00
line_reg = 1.267000e-02
Note: No ".plot", ".print", or ".fourier" lines; no simulations run
vin                 =  1.976011e+00
dropout = 2.120110e-01
