 Reference value :  0.00000e+00
No compatibility mode selected!


Circuit: * ldo netlist 

Doing analysis at TEMP = 27.000000 and TNOM = 27.000000


No. of Data Rows : 1
bg_out = 1.192543e+00
inn = 1.222410e+00
inp = 1.222368e+00
l1#branch = 0.000000e+00
ldo_out = 1.793309e+00
m.xm1.msky130_fd_pr__nfet_g5v0d10v5#body = 1.411757e-11
m.xm1.msky130_fd_pr__nfet_g5v0d10v5#dbody = 2.681501e-11
m.xm1.msky130_fd_pr__nfet_g5v0d10v5#sbody = 1.553771e-11
m.xm2.msky130_fd_pr__pfet_g5v0d10v5#body = 2.100000e+00
m.xm2.msky130_fd_pr__pfet_g5v0d10v5#dbody = 2.100000e+00
m.xm2.msky130_fd_pr__pfet_g5v0d10v5#sbody = 2.100000e+00
m.xm3.msky130_fd_pr__pfet_g5v0d10v5#body = 2.100000e+00
m.xm3.msky130_fd_pr__pfet_g5v0d10v5#dbody = 2.100000e+00
m.xm3.msky130_fd_pr__pfet_g5v0d10v5#sbody = 2.100000e+00
m.xm4.msky130_fd_pr__pfet_g5v0d10v5#body = 2.100000e+00
m.xm4.msky130_fd_pr__pfet_g5v0d10v5#dbody = 2.100000e+00
m.xm4.msky130_fd_pr__pfet_g5v0d10v5#sbody = 2.100000e+00
m.xm5.msky130_fd_pr__pfet_g5v0d10v5#body = 2.100000e+00
m.xm5.msky130_fd_pr__pfet_g5v0d10v5#dbody = 2.100000e+00
m.xm5.msky130_fd_pr__pfet_g5v0d10v5#sbody = 2.100000e+00
m.xm6.msky130_fd_pr__nfet_g5v0d10v5#body = 1.107273e-11
m.xm6.msky130_fd_pr__nfet_g5v0d10v5#dbody = 2.768181e-11
m.xm6.msky130_fd_pr__nfet_g5v0d10v5#sbody = 5.536368e-12
m.xm7.msky130_fd_pr__pfet_g5v0d10v5#body = 2.100000e+00
m.xm7.msky130_fd_pr__pfet_g5v0d10v5#dbody = 2.100000e+00
m.xm7.msky130_fd_pr__pfet_g5v0d10v5#sbody = 2.100000e+00
m.xm8.msky130_fd_pr__pfet_g5v0d10v5#body = 2.100000e+00
m.xm8.msky130_fd_pr__pfet_g5v0d10v5#dbody = 2.100000e+00
m.xm8.msky130_fd_pr__pfet_g5v0d10v5#sbody = 2.100000e+00
m.xm9.msky130_fd_pr__nfet_g5v0d10v5#body = 1.479752e-11
m.xm9.msky130_fd_pr__nfet_g5v0d10v5#dbody = 2.937009e-11
m.xm9.msky130_fd_pr__nfet_g5v0d10v5#sbody = 1.502248e-11
m.xm10.msky130_fd_pr__nfet_g5v0d10v5#body = 1.461554e-11
m.xm10.msky130_fd_pr__nfet_g5v0d10v5#dbody = 2.891513e-11
m.xm10.msky130_fd_pr__nfet_g5v0d10v5#sbody = 1.493148e-11
m.xm11.msky130_fd_pr__pfet_g5v0d10v5#body = 2.100000e+00
m.xm11.msky130_fd_pr__pfet_g5v0d10v5#dbody = 2.100000e+00
m.xm11.msky130_fd_pr__pfet_g5v0d10v5#sbody = 2.100000e+00
m.xm12.msky130_fd_pr__pfet_g5v0d10v5#body = 2.100000e+00
m.xm12.msky130_fd_pr__pfet_g5v0d10v5#dbody = 2.100000e+00
m.xm12.msky130_fd_pr__pfet_g5v0d10v5#sbody = 2.100000e+00
m.xm13.msky130_fd_pr__nfet_g5v0d10v5#body = 3.810500e-12
m.xm13.msky130_fd_pr__nfet_g5v0d10v5#dbody = 9.526238e-12
m.xm13.msky130_fd_pr__nfet_g5v0d10v5#sbody = 1.905260e-12
m.xm14.msky130_fd_pr__pfet_g5v0d10v5#body = 2.100000e+00
m.xm14.msky130_fd_pr__pfet_g5v0d10v5#dbody = 2.100000e+00
m.xm14.msky130_fd_pr__pfet_g5v0d10v5#sbody = 2.100000e+00
m.xm15.msky130_fd_pr__nfet_g5v0d10v5#body = 2.211355e-18
m.xm15.msky130_fd_pr__nfet_g5v0d10v5#dbody = 5.528175e-18
m.xm15.msky130_fd_pr__nfet_g5v0d10v5#sbody = 1.105889e-18
m.xm16.msky130_fd_pr__nfet_g5v0d10v5#body = 4.153875e-11
m.xm16.msky130_fd_pr__nfet_g5v0d10v5#dbody = 7.327801e-11
m.xm16.msky130_fd_pr__nfet_g5v0d10v5#sbody = 5.133825e-11
m.xm17.msky130_fd_pr__pfet_g5v0d10v5#body = 2.100000e+00
m.xm17.msky130_fd_pr__pfet_g5v0d10v5#dbody = 2.100000e+00
m.xm17.msky130_fd_pr__pfet_g5v0d10v5#sbody = 2.100000e+00
m.xm18.msky130_fd_pr__nfet_g5v0d10v5#body = 1.488775e-11
m.xm18.msky130_fd_pr__nfet_g5v0d10v5#dbody = 3.721937e-11
m.xm18.msky130_fd_pr__nfet_g5v0d10v5#sbody = 7.443889e-12
m.xm19.msky130_fd_pr__nfet_g5v0d10v5#body = 1.416003e-11
m.xm19.msky130_fd_pr__nfet_g5v0d10v5#dbody = 2.692114e-11
m.xm19.msky130_fd_pr__nfet_g5v0d10v5#sbody = 1.555894e-11
m.xm20.msky130_fd_pr__nfet_g5v0d10v5#body = 1.098987e-11
m.xm20.msky130_fd_pr__nfet_g5v0d10v5#dbody = 2.747466e-11
m.xm20.msky130_fd_pr__nfet_g5v0d10v5#sbody = 5.494946e-12
m.xm22.msky130_fd_pr__nfet_g5v0d10v5#body = 4.242176e-12
m.xm22.msky130_fd_pr__nfet_g5v0d10v5#dbody = 1.060544e-11
m.xm22.msky130_fd_pr__nfet_g5v0d10v5#sbody = 2.121093e-12
m.xm24.msky130_fd_pr__pfet_g5v0d10v5#body = 2.100000e+00
m.xm24.msky130_fd_pr__pfet_g5v0d10v5#dbody = 2.100000e+00
m.xm24.msky130_fd_pr__pfet_g5v0d10v5#sbody = 2.100000e+00
m.xm26.msky130_fd_pr__pfet_g5v0d10v5#body = 2.100000e+00
m.xm26.msky130_fd_pr__pfet_g5v0d10v5#dbody = 2.100000e+00
m.xm26.msky130_fd_pr__pfet_g5v0d10v5#sbody = 2.100000e+00
mir = 7.899037e-01
net1 = 7.251223e-01
net2 = 1.701598e-07
net3 = 7.846692e-01
net4 = 3.388118e-01
net5 = 7.933000e-01
net6 = 8.852557e-01
net7 = 7.846270e-01
net8 = 8.640580e-01
net9 = 8.786166e-01
net10 = 3.047118e-01
net11 = 1.190892e+00
net12 = 1.190892e+00
net13 = 0.000000e+00
out = 1.190892e+00
pos = 1.192729e+00
q.xq2.qsky130_fd_pr__pnp_05v5_w0p68l0p68#collcx = 2.093216e-03
q.xq3.qsky130_fd_pr__pnp_05v5_w0p68l0p68#collcx = 2.635987e-04
q.xq4.qsky130_fd_pr__pnp_05v5_w0p68l0p68#collcx = 2.635987e-04
q.xq8.qsky130_fd_pr__pnp_05v5_w0p68l0p68#collcx = 2.635987e-04
q.xq10.qsky130_fd_pr__pnp_05v5_w0p68l0p68#collcx = 2.635987e-04
q.xq12.qsky130_fd_pr__pnp_05v5_w0p68l0p68#collcx = 2.635987e-04
q.xq14.qsky130_fd_pr__pnp_05v5_w0p68l0p68#collcx = 2.635987e-04
q.xq16.qsky130_fd_pr__pnp_05v5_w0p68l0p68#collcx = 2.635987e-04
q.xq18.qsky130_fd_pr__pnp_05v5_w0p68l0p68#collcx = 2.635987e-04
vb = 8.790612e-01
vdd = 2.100000e+00
vs#branch = -1.71486e-04
vt#branch = 0.000000e+00
xc1.a = 0.000000e+00
xc1.b1 = 0.000000e+00
xc3.a = 1.190892e+00
xc3.b1 = 1.190892e+00
xr1.xsky130_fd_pr__res_xhigh_po_0p69.ra = 7.921735e-01
xr2.xsky130_fd_pr__res_xhigh_po_0p69.ra = 7.922157e-01
xr3.xsky130_fd_pr__res_xhigh_po_0p69.ra = 5.108693e-03
xr4.xsky130_fd_pr__res_xhigh_po_0p69.ra = 7.276589e-01
xr5.xsky130_fd_pr__res_xhigh_po_0p69.ra = 5.108400e-03
xr6.xsky130_fd_pr__res_xhigh_po_0p69.ra = 8.022457e-03
xr7.xsky130_fd_pr__res_xhigh_po_0p69.ra = 1.190892e+00
xr8.xsky130_fd_pr__res_xhigh_po_0p69.ra = 1.206077e+00
xr9.xsky130_fd_pr__res_xhigh_po_0p69.ra = 1.399875e-02
Doing analysis at TEMP = 27.000000 and TNOM = 27.000000


No. of Data Rows : 91
Note: Starting true gmin stepping
Trying gmin =   1.0000E-03 Note: One successful gmin step
Trying gmin =   1.0000E-04 Note: One successful gmin step
Trying gmin =   1.0000E-05 Note: One successful gmin step
Trying gmin =   1.0000E-06 Note: One successful gmin step
Trying gmin =   1.0000E-07 Warning: Further gmin increment
Trying gmin =   5.6234E-07 Note: One successful gmin step
Trying gmin =   2.3714E-07 Note: One successful gmin step
Trying gmin =   6.4938E-08 Note: One successful gmin step
Trying gmin =   9.3057E-09 Warning: Further gmin increment
Trying gmin =   3.9954E-08 Warning: Further gmin increment
Trying gmin =   5.7513E-08 Note: One successful gmin step
Trying gmin =   4.7936E-08 Note: One successful gmin step
Trying gmin =   3.6476E-08 Note: One successful gmin step
Trying gmin =   2.4212E-08 Note: One successful gmin step
Trying gmin =   1.3094E-08 Note: One successful gmin step
Trying gmin =   5.2073E-09 Note: One successful gmin step
Trying gmin =   1.3060E-09 Note: One successful gmin step
Trying gmin =   1.6403E-10 Note: One successful gmin step
Trying gmin =   1.6403E-11 Note: One successful gmin step
Trying gmin =   1.6403E-12 Note: One successful gmin step
Trying gmin =   1.0000E-12 Note: One successful gmin step
Note: True gmin stepping completed
 Reference value :  1.56000e+00Note: Starting true gmin stepping
Trying gmin =   1.0000E-03 Note: One successful gmin step
Trying gmin =   1.0000E-04 Note: One successful gmin step
Trying gmin =   1.0000E-05 Note: One successful gmin step
Trying gmin =   1.0000E-06 Note: One successful gmin step
Trying gmin =   1.0000E-07 Warning: Further gmin increment
Trying gmin =   5.6234E-07 Note: One successful gmin step
Trying gmin =   2.3714E-07 Note: One successful gmin step
Trying gmin =   6.4938E-08 Note: One successful gmin step
Trying gmin =   9.3057E-09 Warning: Further gmin increment
Trying gmin =   3.9954E-08 Note: One successful gmin step
Trying gmin =   3.1340E-08 Note: One successful gmin step
Trying gmin =   2.1772E-08 Note: One successful gmin step
Trying gmin =   1.2606E-08 Note: One successful gmin step
Trying gmin =   5.5543E-09 Note: One successful gmin step
Trying gmin =   1.6244E-09 Note: One successful gmin step
Trying gmin =   2.5692E-10 Note: One successful gmin step
Trying gmin =   2.5692E-11 Note: One successful gmin step
Trying gmin =   2.5692E-12 Note: One successful gmin step
Trying gmin =   1.0000E-12 Note: One successful gmin step
Note: True gmin stepping completed
pm                  =  5.345356e+01
Doing analysis at TEMP = 27.000000 and TNOM = 27.000000


No. of Data Rows : 91
psrr100             =  -6.577409e+01
psrr100k            =  -2.556145e+01
Doing analysis at TEMP = 27.000000 and TNOM = 27.000000


No. of Data Rows : 86
temp_coeff = 9.389265e+01
Doing analysis at TEMP = 27.000000 and TNOM = 27.000000


No. of Data Rows : 141
vldo_sup_2          =  1.793209e+00
vldo_sup_2_8        =  1.793327e+00
line_reg = 1.475000e-04
Note: No ".plot", ".print", or ".fourier" lines; no simulations run
vin                 =  1.764162e+00
dropout = 1.620000e-04
