 Reference value :  0.00000e+00
No compatibility mode selected!


Circuit: * ldo netlist 

Doing analysis at TEMP = 27.000000 and TNOM = 27.000000


No. of Data Rows : 1
bg_out = 1.195754e+00
inn = 1.227476e+00
inp = 1.227461e+00
l1#branch = 0.000000e+00
ldo_out = 1.799343e+00
m.xm1.msky130_fd_pr__nfet_g5v0d10v5#body = 1.962103e-11
m.xm1.msky130_fd_pr__nfet_g5v0d10v5#dbody = 4.178731e-11
m.xm1.msky130_fd_pr__nfet_g5v0d10v5#sbody = 1.707578e-11
m.xm2.msky130_fd_pr__pfet_g5v0d10v5#body = 2.500000e+00
m.xm2.msky130_fd_pr__pfet_g5v0d10v5#dbody = 2.500000e+00
m.xm2.msky130_fd_pr__pfet_g5v0d10v5#sbody = 2.500000e+00
m.xm3.msky130_fd_pr__pfet_g5v0d10v5#body = 2.500000e+00
m.xm3.msky130_fd_pr__pfet_g5v0d10v5#dbody = 2.500000e+00
m.xm3.msky130_fd_pr__pfet_g5v0d10v5#sbody = 2.500000e+00
m.xm4.msky130_fd_pr__pfet_g5v0d10v5#body = 2.500000e+00
m.xm4.msky130_fd_pr__pfet_g5v0d10v5#dbody = 2.500000e+00
m.xm4.msky130_fd_pr__pfet_g5v0d10v5#sbody = 2.500000e+00
m.xm5.msky130_fd_pr__pfet_g5v0d10v5#body = 2.500000e+00
m.xm5.msky130_fd_pr__pfet_g5v0d10v5#dbody = 2.500000e+00
m.xm5.msky130_fd_pr__pfet_g5v0d10v5#sbody = 2.500000e+00
m.xm6.msky130_fd_pr__nfet_g5v0d10v5#body = 1.180988e-11
m.xm6.msky130_fd_pr__nfet_g5v0d10v5#dbody = 2.952470e-11
m.xm6.msky130_fd_pr__nfet_g5v0d10v5#sbody = 5.904947e-12
m.xm7.msky130_fd_pr__pfet_g5v0d10v5#body = 2.500000e+00
m.xm7.msky130_fd_pr__pfet_g5v0d10v5#dbody = 2.500000e+00
m.xm7.msky130_fd_pr__pfet_g5v0d10v5#sbody = 2.500000e+00
m.xm8.msky130_fd_pr__pfet_g5v0d10v5#body = 2.500000e+00
m.xm8.msky130_fd_pr__pfet_g5v0d10v5#dbody = 2.500000e+00
m.xm8.msky130_fd_pr__pfet_g5v0d10v5#sbody = 2.500000e+00
m.xm9.msky130_fd_pr__nfet_g5v0d10v5#body = 2.026789e-11
m.xm9.msky130_fd_pr__nfet_g5v0d10v5#dbody = 4.433620e-11
m.xm9.msky130_fd_pr__nfet_g5v0d10v5#sbody = 1.646748e-11
m.xm10.msky130_fd_pr__nfet_g5v0d10v5#body = 2.007060e-11
m.xm10.msky130_fd_pr__nfet_g5v0d10v5#dbody = 4.384298e-11
m.xm10.msky130_fd_pr__nfet_g5v0d10v5#sbody = 1.636883e-11
m.xm11.msky130_fd_pr__pfet_g5v0d10v5#body = 2.500000e+00
m.xm11.msky130_fd_pr__pfet_g5v0d10v5#dbody = 2.500000e+00
m.xm11.msky130_fd_pr__pfet_g5v0d10v5#sbody = 2.500000e+00
m.xm12.msky130_fd_pr__pfet_g5v0d10v5#body = 2.500000e+00
m.xm12.msky130_fd_pr__pfet_g5v0d10v5#dbody = 2.500000e+00
m.xm12.msky130_fd_pr__pfet_g5v0d10v5#sbody = 2.500000e+00
m.xm13.msky130_fd_pr__nfet_g5v0d10v5#body = 3.165407e-12
m.xm13.msky130_fd_pr__nfet_g5v0d10v5#dbody = 7.913506e-12
m.xm13.msky130_fd_pr__nfet_g5v0d10v5#sbody = 1.582715e-12
m.xm14.msky130_fd_pr__pfet_g5v0d10v5#body = 2.500000e+00
m.xm14.msky130_fd_pr__pfet_g5v0d10v5#dbody = 2.500000e+00
m.xm14.msky130_fd_pr__pfet_g5v0d10v5#sbody = 2.500000e+00
m.xm15.msky130_fd_pr__nfet_g5v0d10v5#body = 6.276515e-16
m.xm15.msky130_fd_pr__nfet_g5v0d10v5#dbody = 1.569087e-15
m.xm15.msky130_fd_pr__nfet_g5v0d10v5#sbody = 3.138677e-16
m.xm16.msky130_fd_pr__nfet_g5v0d10v5#body = 4.660215e-11
m.xm16.msky130_fd_pr__nfet_g5v0d10v5#dbody = 8.580976e-11
m.xm16.msky130_fd_pr__nfet_g5v0d10v5#sbody = 5.399668e-11
m.xm17.msky130_fd_pr__pfet_g5v0d10v5#body = 2.500000e+00
m.xm17.msky130_fd_pr__pfet_g5v0d10v5#dbody = 2.500000e+00
m.xm17.msky130_fd_pr__pfet_g5v0d10v5#sbody = 2.500000e+00
m.xm18.msky130_fd_pr__nfet_g5v0d10v5#body = 1.774164e-11
m.xm18.msky130_fd_pr__nfet_g5v0d10v5#dbody = 4.435063e-11
m.xm18.msky130_fd_pr__nfet_g5v0d10v5#sbody = 8.870834e-12
m.xm19.msky130_fd_pr__nfet_g5v0d10v5#body = 1.964803e-11
m.xm19.msky130_fd_pr__nfet_g5v0d10v5#dbody = 4.185482e-11
m.xm19.msky130_fd_pr__nfet_g5v0d10v5#sbody = 1.708928e-11
m.xm20.msky130_fd_pr__nfet_g5v0d10v5#body = 1.208412e-11
m.xm20.msky130_fd_pr__nfet_g5v0d10v5#dbody = 3.021029e-11
m.xm20.msky130_fd_pr__nfet_g5v0d10v5#sbody = 6.042075e-12
m.xm22.msky130_fd_pr__nfet_g5v0d10v5#body = 3.635346e-12
m.xm22.msky130_fd_pr__nfet_g5v0d10v5#dbody = 9.088358e-12
m.xm22.msky130_fd_pr__nfet_g5v0d10v5#sbody = 1.817678e-12
m.xm24.msky130_fd_pr__pfet_g5v0d10v5#body = 2.500000e+00
m.xm24.msky130_fd_pr__pfet_g5v0d10v5#dbody = 2.500000e+00
m.xm24.msky130_fd_pr__pfet_g5v0d10v5#sbody = 2.500000e+00
m.xm26.msky130_fd_pr__pfet_g5v0d10v5#body = 2.500000e+00
m.xm26.msky130_fd_pr__pfet_g5v0d10v5#dbody = 2.500000e+00
m.xm26.msky130_fd_pr__pfet_g5v0d10v5#sbody = 2.500000e+00
mir = 1.278724e+00
net1 = 7.274645e-01
net2 = 4.829417e-05
net3 = 7.873318e-01
net4 = 2.902629e-01
net5 = 1.280884e+00
net6 = 9.442258e-01
net7 = 7.873156e-01
net8 = 1.352068e+00
net9 = 1.367851e+00
net10 = 2.531020e-01
net11 = 1.419062e+00
net12 = 1.419062e+00
net13 = 0.000000e+00
out = 1.419062e+00
pos = 1.195898e+00
q.xq2.qsky130_fd_pr__pnp_05v5_w0p68l0p68#collcx = 2.278282e-03
q.xq3.qsky130_fd_pr__pnp_05v5_w0p68l0p68#collcx = 2.871093e-04
q.xq4.qsky130_fd_pr__pnp_05v5_w0p68l0p68#collcx = 2.871093e-04
q.xq8.qsky130_fd_pr__pnp_05v5_w0p68l0p68#collcx = 2.871093e-04
q.xq10.qsky130_fd_pr__pnp_05v5_w0p68l0p68#collcx = 2.871093e-04
q.xq12.qsky130_fd_pr__pnp_05v5_w0p68l0p68#collcx = 2.871093e-04
q.xq14.qsky130_fd_pr__pnp_05v5_w0p68l0p68#collcx = 2.871093e-04
q.xq16.qsky130_fd_pr__pnp_05v5_w0p68l0p68#collcx = 2.871093e-04
q.xq18.qsky130_fd_pr__pnp_05v5_w0p68l0p68#collcx = 2.871093e-04
vb = 9.665992e-01
vdd = 2.500000e+00
vs#branch = -1.01287e-02
vt#branch = 0.000000e+00
xc1.a = 0.000000e+00
xc1.b1 = 0.000000e+00
xc3.a = 1.419062e+00
xc3.b1 = 1.419062e+00
xr1.xsky130_fd_pr__res_xhigh_po_0p69.ra = 7.902193e-01
xr2.xsky130_fd_pr__res_xhigh_po_0p69.ra = 7.902355e-01
xr3.xsky130_fd_pr__res_xhigh_po_0p69.ra = 1.966688e-03
xr4.xsky130_fd_pr__res_xhigh_po_0p69.ra = 7.284396e-01
xr5.xsky130_fd_pr__res_xhigh_po_0p69.ra = 1.966644e-03
xr6.xsky130_fd_pr__res_xhigh_po_0p69.ra = 3.086708e-03
xr7.xsky130_fd_pr__res_xhigh_po_0p69.ra = 1.419062e+00
xr8.xsky130_fd_pr__res_xhigh_po_0p69.ra = 1.201028e+00
xr9.xsky130_fd_pr__res_xhigh_po_0p69.ra = 5.380454e-03
Doing analysis at TEMP = 27.000000 and TNOM = 27.000000


No. of Data Rows : 91
Note: Starting true gmin stepping
Trying gmin =   1.0000E-03 Note: One successful gmin step
Trying gmin =   1.0000E-04 Note: One successful gmin step
Trying gmin =   1.0000E-05 Note: One successful gmin step
Trying gmin =   1.0000E-06 Note: One successful gmin step
Trying gmin =   1.0000E-07 Note: One successful gmin step
Trying gmin =   1.0000E-08 Warning: Further gmin increment
Trying gmin =   5.6234E-08 Warning: Further gmin increment
Trying gmin =   8.6596E-08 Note: One successful gmin step
Trying gmin =   6.9783E-08 Note: One successful gmin step
Trying gmin =   5.0481E-08 Warning: Further gmin increment
Trying gmin =   6.4357E-08 Note: One successful gmin step
Trying gmin =   5.6998E-08 Warning: Further gmin increment
Trying gmin =   6.2432E-08 Note: One successful gmin step
Trying gmin =   5.9653E-08 Warning: Further gmin increment
Trying gmin =   6.1726E-08 Note: One successful gmin step
Trying gmin =   6.0681E-08 Note: One successful gmin step
Trying gmin =   5.9146E-08 Warning: Further gmin increment
Trying gmin =   6.0293E-08 Warning: Further gmin increment
Trying gmin =   6.0584E-08 Note: One successful gmin step
Trying gmin =   6.0438E-08 Warning: Further gmin increment
Trying gmin =   6.0547E-08 Note: One successful gmin step
Trying gmin =   6.0493E-08 Warning: Further gmin increment
Trying gmin =   6.0534E-08 Note: One successful gmin step
Trying gmin =   6.0513E-08 Note: One successful gmin step
Trying gmin =   6.0483E-08 Warning: Further gmin increment
Trying gmin =   6.0506E-08 Note: One successful gmin step
Trying gmin =   6.0494E-08 Warning: Further gmin increment
Trying gmin =   6.0503E-08 Note: One successful gmin step
Trying gmin =   6.0498E-08 Note: One successful gmin step
Trying gmin =   6.0492E-08 Warning: Further gmin increment
Trying gmin =   6.0497E-08 Note: One successful gmin step
Trying gmin =   6.0494E-08 Warning: Last gmin step failed
Warning: True gmin stepping failed
Note: Starting dynamic gmin stepping
Trying gmin =   1.0000E-03 Note: One successful gmin step
Trying gmin =   1.0000E-04 Note: One successful gmin step
Trying gmin =   1.0000E-05 Warning: Further gmin increment
Trying gmin =   5.6234E-05 Note: One successful gmin step
Trying gmin =   2.3714E-05 Note: One successful gmin step
Trying gmin =   6.4938E-06 Warning: Further gmin increment
Trying gmin =   1.7154E-05 Note: One successful gmin step
Trying gmin =   1.0554E-05 Warning: Further gmin increment
Trying gmin =   1.5193E-05 Note: One successful gmin step
Trying gmin =   1.2663E-05 Note: One successful gmin step
Trying gmin =   1.0554E-05 Note: One successful gmin step
Trying gmin =   8.0313E-06 Note: One successful gmin step
Trying gmin =   5.3310E-06 Note: One successful gmin step
Trying gmin =   3.5386E-06 Note: One successful gmin step
Trying gmin =   1.9136E-06 Note: One successful gmin step
Trying gmin =   7.6104E-07 Note: One successful gmin step
Trying gmin =   1.9087E-07 Warning: Further gmin increment
Trying gmin =   5.3857E-07 Note: One successful gmin step
Trying gmin =   3.2062E-07 Note: One successful gmin step
Trying gmin =   1.4727E-07 Warning: Further gmin increment
Trying gmin =   2.6395E-07 Warning: Further gmin increment
Trying gmin =   3.0540E-07 Note: One successful gmin step
Trying gmin =   2.8392E-07 Note: One successful gmin step
Trying gmin =   2.5449E-07 Warning: Further gmin increment
Trying gmin =   2.7626E-07 Warning: Further gmin increment
Trying gmin =   2.8198E-07 Note: One successful gmin step
Trying gmin =   2.7910E-07 Warning: Further gmin increment
Trying gmin =   2.8126E-07 Note: One successful gmin step
Trying gmin =   2.8018E-07 Warning: Further gmin increment
Trying gmin =   2.8099E-07 Note: One successful gmin step
Trying gmin =   2.8058E-07 Note: One successful gmin step
Trying gmin =   2.7998E-07 Warning: Further gmin increment
Trying gmin =   2.8043E-07 Note: One successful gmin step
Trying gmin =   2.8021E-07 Warning: Further gmin increment
Trying gmin =   2.8038E-07 Note: One successful gmin step
Trying gmin =   2.8029E-07 Note: One successful gmin step
Trying gmin =   2.8016E-07 Warning: Further gmin increment
Trying gmin =   2.8026E-07 Warning: Further gmin increment
Trying gmin =   2.8028E-07 Note: One successful gmin step
Trying gmin =   2.8027E-07 Note: One successful gmin step
Trying gmin =   2.8025E-07 Warning: Further gmin increment
Trying gmin =   2.8027E-07 Note: One successful gmin step
Trying gmin =   2.8026E-07 Note: One successful gmin step
Trying gmin =   2.8025E-07 Warning: Last gmin step failed
Warning: Dynamic gmin stepping failed
Note: Starting source stepping
Supplies reduced to   0.0000% Note: One successful source step
Supplies reduced to   0.1000% Note: One successful source step
Supplies reduced to   0.2000% Note: One successful source step
Supplies reduced to   0.3500% Note: One successful source step
Supplies reduced to   0.5750% Note: One successful source step
Supplies reduced to   0.9125% Note: One successful source step
Supplies reduced to   1.4188% Note: One successful source step
Supplies reduced to   2.1781% Note: One successful source step
Supplies reduced to   3.3172% Note: One successful source step
Supplies reduced to   5.0258% Note: One successful source step
Supplies reduced to   7.5887% Note: One successful source step
Supplies reduced to  11.4330% Note: One successful source step
Supplies reduced to  17.1995% Note: One successful source step
Supplies reduced to  25.8493% Note: One successful source step
Supplies reduced to  38.8239% Supplies reduced to  25.8493% Note: One successful source step
Supplies reduced to  26.4980% Note: One successful source step
Supplies reduced to  27.4711% Note: One successful source step
Supplies reduced to  28.9307% Note: One successful source step
Supplies reduced to  31.1202% Note: One successful source step
Supplies reduced to  34.4044% Note: One successful source step
Supplies reduced to  39.3307% Note: One successful source step
Supplies reduced to  46.7202% Supplies reduced to  39.3307% Note: One successful source step
Supplies reduced to  40.3307% Note: One successful source step
Supplies reduced to  41.8307% Note: One successful source step
Supplies reduced to  44.0807% Note: One successful source step
Supplies reduced to  47.4557% Note: One successful source step
Supplies reduced to  52.5182% Note: One successful source step
Supplies reduced to  60.1120% Note: One successful source step
Supplies reduced to  71.5026% Note: One successful source step
Supplies reduced to  88.5885% Supplies reduced to  71.5026% Note: One successful source step
Supplies reduced to  72.5026% Note: One successful source step
Supplies reduced to  74.0026% Supplies reduced to  72.5026% Note: One successful source step
Supplies reduced to  72.7276% Note: One successful source step
Supplies reduced to  73.0651% Supplies reduced to  72.7276% Note: One successful source step
Supplies reduced to  72.7782% Note: One successful source step
Supplies reduced to  72.8542% Supplies reduced to  72.7782% Note: One successful source step
Supplies reduced to  72.7896% Note: One successful source step
Supplies reduced to  72.8067% Note: One successful source step
Supplies reduced to  72.8323% Supplies reduced to  72.8067% Note: One successful source step
Supplies reduced to  72.8105% Note: One successful source step
Supplies reduced to  72.8163% Supplies reduced to  72.8105% Note: One successful source step
Supplies reduced to  72.8114% Supplies reduced to  72.8105% Note: One successful source step
Supplies reduced to  72.8107% Note: One successful source step
Supplies reduced to  72.8109% Supplies reduced to  72.8107% Note: One successful source step
Supplies reduced to  72.8107% Warning: source stepping failed
doAnalyses: Too many iterations without convergence

dc simulation(s) aborted
Error(parse.c--checkvalid): vldo_sup_2_8: zero length vector.
Error: RHS "abs((vldo_sup_2_8-vldo_sup_2)/0.8)" invalid
Error(parse.c--checkvalid): line_reg: zero length vector.
Error(parse.c--checkvalid): vin: zero length vector.
Error: RHS "vin-1.764" invalid
Error(parse.c--checkvalid): dropout: zero length vector.
Error: no such vector dropout
Note: No ".plot", ".print", or ".fourier" lines; no simulations run
pm                  =  -1.039442e+02
Doing analysis at TEMP = 27.000000 and TNOM = 27.000000


No. of Data Rows : 91
psrr100             =  -8.311067e+01
psrr100k            =  -2.597641e+01
Doing analysis at TEMP = 27.000000 and TNOM = 27.000000


No. of Data Rows : 86
temp_coeff = 1.784485e+02
Doing analysis at TEMP = 27.000000 and TNOM = 27.000000


Error: measure  vldo_sup_2  (AT) : out of interval
 meas dc vldo_sup_2 find ldo_out at=2 failed!


Error: measure  vldo_sup_2_8  (AT) : out of interval
 meas dc vldo_sup_2_8 find ldo_out at=2.8 failed!


Error: measure  vin  (WHEN) : out of interval
 meas dc vin when v(ldo_out)=1.764 failed!

