 Reference value :  0.00000e+00
No compatibility mode selected!


Circuit: * ldo netlist 

Doing analysis at TEMP = 85.000000 and TNOM = 27.000000


No. of Data Rows : 1
bg_out = 1.190865e+00
inn = 1.133963e+00
inp = 1.133934e+00
l1#branch = 0.000000e+00
ldo_out = 1.791248e+00
m.xm1.msky130_fd_pr__nfet_g5v0d10v5#body = 2.717049e-11
m.xm1.msky130_fd_pr__nfet_g5v0d10v5#dbody = 4.970118e-11
m.xm1.msky130_fd_pr__nfet_g5v0d10v5#sbody = 3.181029e-11
m.xm2.msky130_fd_pr__pfet_g5v0d10v5#body = 2.100000e+00
m.xm2.msky130_fd_pr__pfet_g5v0d10v5#dbody = 2.100000e+00
m.xm2.msky130_fd_pr__pfet_g5v0d10v5#sbody = 2.100000e+00
m.xm3.msky130_fd_pr__pfet_g5v0d10v5#body = 2.100000e+00
m.xm3.msky130_fd_pr__pfet_g5v0d10v5#dbody = 2.100000e+00
m.xm3.msky130_fd_pr__pfet_g5v0d10v5#sbody = 2.100000e+00
m.xm4.msky130_fd_pr__pfet_g5v0d10v5#body = 2.100000e+00
m.xm4.msky130_fd_pr__pfet_g5v0d10v5#dbody = 2.100000e+00
m.xm4.msky130_fd_pr__pfet_g5v0d10v5#sbody = 2.100000e+00
m.xm5.msky130_fd_pr__pfet_g5v0d10v5#body = 2.100000e+00
m.xm5.msky130_fd_pr__pfet_g5v0d10v5#dbody = 2.100000e+00
m.xm5.msky130_fd_pr__pfet_g5v0d10v5#sbody = 2.100000e+00
m.xm6.msky130_fd_pr__nfet_g5v0d10v5#body = 1.923004e-11
m.xm6.msky130_fd_pr__nfet_g5v0d10v5#dbody = 4.807499e-11
m.xm6.msky130_fd_pr__nfet_g5v0d10v5#sbody = 9.615127e-12
m.xm7.msky130_fd_pr__pfet_g5v0d10v5#body = 2.100000e+00
m.xm7.msky130_fd_pr__pfet_g5v0d10v5#dbody = 2.100000e+00
m.xm7.msky130_fd_pr__pfet_g5v0d10v5#sbody = 2.100000e+00
m.xm8.msky130_fd_pr__pfet_g5v0d10v5#body = 2.100000e+00
m.xm8.msky130_fd_pr__pfet_g5v0d10v5#dbody = 2.100000e+00
m.xm8.msky130_fd_pr__pfet_g5v0d10v5#sbody = 2.100000e+00
m.xm9.msky130_fd_pr__nfet_g5v0d10v5#body = 2.536727e-11
m.xm9.msky130_fd_pr__nfet_g5v0d10v5#dbody = 4.781379e-11
m.xm9.msky130_fd_pr__nfet_g5v0d10v5#sbody = 2.828801e-11
m.xm10.msky130_fd_pr__nfet_g5v0d10v5#body = 2.522320e-11
m.xm10.msky130_fd_pr__nfet_g5v0d10v5#dbody = 4.745362e-11
m.xm10.msky130_fd_pr__nfet_g5v0d10v5#sbody = 2.821598e-11
m.xm11.msky130_fd_pr__pfet_g5v0d10v5#body = 2.100000e+00
m.xm11.msky130_fd_pr__pfet_g5v0d10v5#dbody = 2.100000e+00
m.xm11.msky130_fd_pr__pfet_g5v0d10v5#sbody = 2.100000e+00
m.xm12.msky130_fd_pr__pfet_g5v0d10v5#body = 2.100000e+00
m.xm12.msky130_fd_pr__pfet_g5v0d10v5#dbody = 2.100000e+00
m.xm12.msky130_fd_pr__pfet_g5v0d10v5#sbody = 2.100000e+00
m.xm13.msky130_fd_pr__nfet_g5v0d10v5#body = 6.154508e-12
m.xm13.msky130_fd_pr__nfet_g5v0d10v5#dbody = 1.538620e-11
m.xm13.msky130_fd_pr__nfet_g5v0d10v5#sbody = 3.077319e-12
m.xm14.msky130_fd_pr__pfet_g5v0d10v5#body = 2.100000e+00
m.xm14.msky130_fd_pr__pfet_g5v0d10v5#dbody = 2.100000e+00
m.xm14.msky130_fd_pr__pfet_g5v0d10v5#sbody = 2.100000e+00
m.xm15.msky130_fd_pr__nfet_g5v0d10v5#body = 3.922833e-15
m.xm15.msky130_fd_pr__nfet_g5v0d10v5#dbody = 9.806775e-15
m.xm15.msky130_fd_pr__nfet_g5v0d10v5#sbody = 1.961723e-15
m.xm16.msky130_fd_pr__nfet_g5v0d10v5#body = 5.092714e-11
m.xm16.msky130_fd_pr__nfet_g5v0d10v5#dbody = 8.846618e-11
m.xm16.msky130_fd_pr__nfet_g5v0d10v5#sbody = 6.431524e-11
m.xm17.msky130_fd_pr__pfet_g5v0d10v5#body = 2.100000e+00
m.xm17.msky130_fd_pr__pfet_g5v0d10v5#dbody = 2.100000e+00
m.xm17.msky130_fd_pr__pfet_g5v0d10v5#sbody = 2.100000e+00
m.xm18.msky130_fd_pr__nfet_g5v0d10v5#body = 1.657360e-11
m.xm18.msky130_fd_pr__nfet_g5v0d10v5#dbody = 4.143392e-11
m.xm18.msky130_fd_pr__nfet_g5v0d10v5#sbody = 8.286873e-12
m.xm19.msky130_fd_pr__nfet_g5v0d10v5#body = 2.720560e-11
m.xm19.msky130_fd_pr__nfet_g5v0d10v5#dbody = 4.978896e-11
m.xm19.msky130_fd_pr__nfet_g5v0d10v5#sbody = 3.182784e-11
m.xm20.msky130_fd_pr__nfet_g5v0d10v5#body = 1.263782e-11
m.xm20.msky130_fd_pr__nfet_g5v0d10v5#dbody = 3.159449e-11
m.xm20.msky130_fd_pr__nfet_g5v0d10v5#sbody = 6.318983e-12
m.xm22.msky130_fd_pr__nfet_g5v0d10v5#body = 1.240781e-11
m.xm22.msky130_fd_pr__nfet_g5v0d10v5#dbody = 3.101943e-11
m.xm22.msky130_fd_pr__nfet_g5v0d10v5#sbody = 6.204011e-12
m.xm24.msky130_fd_pr__pfet_g5v0d10v5#body = 2.100000e+00
m.xm24.msky130_fd_pr__pfet_g5v0d10v5#dbody = 2.100000e+00
m.xm24.msky130_fd_pr__pfet_g5v0d10v5#sbody = 2.100000e+00
m.xm26.msky130_fd_pr__pfet_g5v0d10v5#body = 2.100000e+00
m.xm26.msky130_fd_pr__pfet_g5v0d10v5#dbody = 2.100000e+00
m.xm26.msky130_fd_pr__pfet_g5v0d10v5#sbody = 2.100000e+00
mir = 1.024533e+00
net1 = 6.211241e-01
net2 = 7.583131e-06
net3 = 6.945730e-01
net4 = 3.089361e-01
net5 = 1.027342e+00
net6 = 8.546510e-01
net7 = 6.945437e-01
net8 = 1.105399e+00
net9 = 1.116924e+00
net10 = 3.359044e-01
net11 = 1.169425e+00
net12 = 1.169425e+00
net13 = 0.000000e+00
out = 1.169425e+00
pos = 1.191013e+00
q.xq2.qsky130_fd_pr__pnp_05v5_w0p68l0p68#collcx = 2.896537e-03
q.xq3.qsky130_fd_pr__pnp_05v5_w0p68l0p68#collcx = 3.643312e-04
q.xq4.qsky130_fd_pr__pnp_05v5_w0p68l0p68#collcx = 3.643312e-04
q.xq8.qsky130_fd_pr__pnp_05v5_w0p68l0p68#collcx = 3.643312e-04
q.xq10.qsky130_fd_pr__pnp_05v5_w0p68l0p68#collcx = 3.643312e-04
q.xq12.qsky130_fd_pr__pnp_05v5_w0p68l0p68#collcx = 3.643312e-04
q.xq14.qsky130_fd_pr__pnp_05v5_w0p68l0p68#collcx = 3.643312e-04
q.xq16.qsky130_fd_pr__pnp_05v5_w0p68l0p68#collcx = 3.643312e-04
q.xq18.qsky130_fd_pr__pnp_05v5_w0p68l0p68#collcx = 3.643312e-04
vb = 8.545630e-01
vdd = 2.100000e+00
vs#branch = -1.00832e-02
vt#branch = 0.000000e+00
xc1.a = 0.000000e+00
xc1.b1 = 0.000000e+00
xc3.a = 1.169425e+00
xc3.b1 = 1.169425e+00
xr1.xsky130_fd_pr__res_xhigh_po_0p69.ra = 7.027326e-01
xr2.xsky130_fd_pr__res_xhigh_po_0p69.ra = 7.027619e-01
xr3.xsky130_fd_pr__res_xhigh_po_0p69.ra = 4.855958e-03
xr4.xsky130_fd_pr__res_xhigh_po_0p69.ra = 6.245001e-01
xr5.xsky130_fd_pr__res_xhigh_po_0p69.ra = 4.855742e-03
xr6.xsky130_fd_pr__res_xhigh_po_0p69.ra = 8.665862e-03
xr7.xsky130_fd_pr__res_xhigh_po_0p69.ra = 1.169425e+00
xr8.xsky130_fd_pr__res_xhigh_po_0p69.ra = 1.205427e+00
xr9.xsky130_fd_pr__res_xhigh_po_0p69.ra = 1.511472e-02
Doing analysis at TEMP = 85.000000 and TNOM = 27.000000


No. of Data Rows : 91
Note: Starting true gmin stepping
Trying gmin =   1.0000E-03 Note: One successful gmin step
Trying gmin =   1.0000E-04 Note: One successful gmin step
Trying gmin =   1.0000E-05 Note: One successful gmin step
Trying gmin =   1.0000E-06 Note: One successful gmin step
Trying gmin =   1.0000E-07 Note: One successful gmin step
Trying gmin =   1.0000E-08 Warning: Further gmin increment
Trying gmin =   5.6234E-08 Note: One successful gmin step
Trying gmin =   2.3714E-08 Warning: Further gmin increment
Trying gmin =   4.5316E-08 Warning: Further gmin increment
Trying gmin =   5.3280E-08 Note: One successful gmin step
Trying gmin =   4.9137E-08 Warning: Further gmin increment
Trying gmin =   5.2212E-08 Note: One successful gmin step
Trying gmin =   5.0651E-08 Warning: Further gmin increment
Trying gmin =   5.1818E-08 Warning: Further gmin increment
Trying gmin =   5.2113E-08 Note: One successful gmin step
Trying gmin =   5.1965E-08 Warning: Further gmin increment
Trying gmin =   5.2076E-08 Note: One successful gmin step
Trying gmin =   5.2021E-08 Note: One successful gmin step
Trying gmin =   5.1938E-08 Warning: Further gmin increment
Trying gmin =   5.2000E-08 Note: One successful gmin step
Trying gmin =   5.1969E-08 Warning: Further gmin increment
Trying gmin =   5.1992E-08 Note: One successful gmin step
Trying gmin =   5.1980E-08 Warning: Further gmin increment
Trying gmin =   5.1989E-08 Warning: Further gmin increment
Trying gmin =   5.1991E-08 Note: One successful gmin step
Trying gmin =   5.1990E-08 Warning: Last gmin step failed
Warning: True gmin stepping failed
Note: Starting dynamic gmin stepping
Trying gmin =   1.0000E-03 Note: One successful gmin step
Trying gmin =   1.0000E-04 Note: One successful gmin step
Trying gmin =   1.0000E-05 Warning: Further gmin increment
Trying gmin =   5.6234E-05 Note: One successful gmin step
Trying gmin =   2.3714E-05 Note: One successful gmin step
Trying gmin =   6.4938E-06 Warning: Further gmin increment
Trying gmin =   1.7154E-05 Note: One successful gmin step
Trying gmin =   1.0554E-05 Warning: Further gmin increment
Trying gmin =   1.5193E-05 Note: One successful gmin step
Trying gmin =   1.2663E-05 Note: One successful gmin step
Trying gmin =   1.1561E-05 Note: One successful gmin step
Trying gmin =   1.0085E-05 Note: One successful gmin step
Trying gmin =   8.2162E-06 Note: One successful gmin step
Trying gmin =   6.0421E-06 Note: One successful gmin step
Trying gmin =   3.8103E-06 Note: One successful gmin step
Trying gmin =   1.9082E-06 Note: One successful gmin step
Trying gmin =   6.7626E-07 Note: One successful gmin step
Trying gmin =   1.4268E-07 Warning: Further gmin increment
Trying gmin =   4.5833E-07 Note: One successful gmin step
Trying gmin =   2.5572E-07 Note: One successful gmin step
Trying gmin =   1.0657E-07 Warning: Further gmin increment
Trying gmin =   2.0546E-07 Warning: Further gmin increment
Trying gmin =   2.4211E-07 Note: One successful gmin step
Trying gmin =   2.2303E-07 Warning: Further gmin increment
Trying gmin =   2.3719E-07 Warning: Further gmin increment
Trying gmin =   2.4087E-07 Note: One successful gmin step
Trying gmin =   2.3902E-07 Note: One successful gmin step
Trying gmin =   2.3628E-07 Warning: Further gmin increment
Trying gmin =   2.3833E-07 Warning: Further gmin increment
Trying gmin =   2.3885E-07 Warning: Further gmin increment
Trying gmin =   2.3898E-07 Note: One successful gmin step
Trying gmin =   2.3892E-07 Note: One successful gmin step
Trying gmin =   2.3882E-07 Warning: Further gmin increment
Trying gmin =   2.3889E-07 Note: One successful gmin step
Trying gmin =   2.3885E-07 Warning: Further gmin increment
Trying gmin =   2.3888E-07 Note: One successful gmin step
Trying gmin =   2.3887E-07 Note: One successful gmin step
Trying gmin =   2.3885E-07 Warning: Further gmin increment
Trying gmin =   2.3886E-07 Warning: Last gmin step failed
Warning: Dynamic gmin stepping failed
Note: Starting source stepping
Supplies reduced to   0.0000% Note: One successful source step
Supplies reduced to   0.1000% Note: One successful source step
Supplies reduced to   0.2000% Note: One successful source step
Supplies reduced to   0.3500% Note: One successful source step
Supplies reduced to   0.5750% Note: One successful source step
Supplies reduced to   0.9125% Note: One successful source step
Supplies reduced to   1.4188% Note: One successful source step
Supplies reduced to   2.1781% Note: One successful source step
Supplies reduced to   3.3172% Note: One successful source step
Supplies reduced to   5.0258% Note: One successful source step
Supplies reduced to   7.5887% Note: One successful source step
Supplies reduced to  11.4330% Note: One successful source step
Supplies reduced to  17.1995% Note: One successful source step
Supplies reduced to  25.8493% Supplies reduced to  17.1995% Note: One successful source step
Supplies reduced to  18.1995% Note: One successful source step
Supplies reduced to  19.6995% Note: One successful source step
Supplies reduced to  21.9495% Supplies reduced to  19.6995% Note: One successful source step
Supplies reduced to  20.0370% Note: One successful source step
Supplies reduced to  20.5433% Note: One successful source step
Supplies reduced to  21.3026% Note: One successful source step
Supplies reduced to  22.4417% Note: One successful source step
Supplies reduced to  24.1503% Note: One successful source step
Supplies reduced to  26.7132% Note: One successful source step
Supplies reduced to  30.5575% Note: One successful source step
Supplies reduced to  36.3240% Note: One successful source step
Supplies reduced to  44.9738% Note: One successful source step
Supplies reduced to  57.9484% Note: One successful source step
Supplies reduced to  77.4104% Supplies reduced to  57.9484% Note: One successful source step
Supplies reduced to  58.9484% Note: One successful source step
Supplies reduced to  60.4484% Note: One successful source step
Supplies reduced to  62.6984% Note: One successful source step
Supplies reduced to  66.0734% Note: One successful source step
Supplies reduced to  71.1359% Supplies reduced to  66.0734% Note: One successful source step
Supplies reduced to  66.8328% Note: One successful source step
Supplies reduced to  67.9719% Note: One successful source step
Supplies reduced to  69.6804% Supplies reduced to  67.9719% Note: One successful source step
Supplies reduced to  68.2281% Note: One successful source step
Supplies reduced to  68.6126% Supplies reduced to  68.2281% Note: One successful source step
Supplies reduced to  68.2858% Note: One successful source step
Supplies reduced to  68.3723% Note: One successful source step
Supplies reduced to  68.5020% Supplies reduced to  68.3723% Note: One successful source step
Supplies reduced to  68.3918% Supplies reduced to  68.3723% Note: One successful source step
Supplies reduced to  68.3752% Supplies reduced to  68.3723% Note: One successful source step
Supplies reduced to  68.3727% Note: One successful source step
Supplies reduced to  68.3734% Note: One successful source step
Supplies reduced to  68.3744% Note: One successful source step
Supplies reduced to  68.3759% Supplies reduced to  68.3744% Note: One successful source step
Supplies reduced to  68.3746% Note: One successful source step
Supplies reduced to  68.3749% Note: One successful source step
Supplies reduced to  68.3754% Supplies reduced to  68.3749% Note: One successful source step
Supplies reduced to  68.3750% Supplies reduced to  68.3749% Note: One successful source step
Supplies reduced to  68.3749% Note: One successful source step
Supplies reduced to  68.3750% Note: One successful source step
Supplies reduced to  68.3750% Warning: source stepping failed
doAnalyses: Too many iterations without convergence

dc simulation(s) aborted
Error(parse.c--checkvalid): vldo_sup_2_8: zero length vector.
Error: RHS "abs((vldo_sup_2_8-vldo_sup_2)/0.8)" invalid
Error(parse.c--checkvalid): line_reg: zero length vector.
Error(parse.c--checkvalid): vin: zero length vector.
Error: RHS "vin-1.764" invalid
Error(parse.c--checkvalid): dropout: zero length vector.
Error: no such vector dropout
Note: No ".plot", ".print", or ".fourier" lines; no simulations run
pm                  =  -6.601914e+01
Doing analysis at TEMP = 85.000000 and TNOM = 27.000000


No. of Data Rows : 91
psrr100             =  -4.791955e+01
psrr100k            =  -2.431951e+01
Doing analysis at TEMP = 85.000000 and TNOM = 27.000000


No. of Data Rows : 86
temp_coeff = 6.545592e+01
Doing analysis at TEMP = 85.000000 and TNOM = 27.000000


Error: measure  vldo_sup_2  (AT) : out of interval
 meas dc vldo_sup_2 find ldo_out at=2 failed!


Error: measure  vldo_sup_2_8  (AT) : out of interval
 meas dc vldo_sup_2_8 find ldo_out at=2.8 failed!


Error: measure  vin  (WHEN) : out of interval
 meas dc vin when v(ldo_out)=1.764 failed!

