Note: Starting true gmin stepping
Trying gmin =   1.0000E-03 Note: One successful gmin step
Trying gmin =   1.0000E-04 Note: One successful gmin step
Trying gmin =   1.0000E-05 Note: One successful gmin step
Trying gmin =   1.0000E-06 Note: One successful gmin step
Trying gmin =   1.0000E-07 Warning: Further gmin increment
Trying gmin =   5.6234E-07 Note: One successful gmin step
Trying gmin =   2.3714E-07 Note: One successful gmin step
Trying gmin =   6.4938E-08 Warning: Further gmin increment
Trying gmin =   1.7154E-07 Note: One successful gmin step
Trying gmin =   1.0554E-07 Note: One successful gmin step
Trying gmin =   6.4938E-08 Warning: Further gmin increment
Trying gmin =   9.3477E-08 Note: One successful gmin step
Trying gmin =   7.7911E-08 Warning: Further gmin increment
Trying gmin =   8.9316E-08 Warning: Further gmin increment
Trying gmin =   9.2419E-08 Note: One successful gmin step
Trying gmin =   9.1372E-08 Note: One successful gmin step
Trying gmin =   8.9826E-08 Note: One successful gmin step
Trying gmin =   8.7554E-08 Note: One successful gmin step
Trying gmin =   8.4254E-08 Note: One successful gmin step
Trying gmin =   7.9536E-08 Note: One successful gmin step
Trying gmin =   7.2949E-08 Note: One successful gmin step
Trying gmin =   6.4078E-08 Note: One successful gmin step
Trying gmin =   5.2752E-08 Note: One successful gmin step
Trying gmin =   3.9403E-08 Note: One successful gmin step
Trying gmin =   2.5437E-08 Note: One successful gmin step
Trying gmin =   1.3194E-08 Note: One successful gmin step
Trying gmin =   4.9290E-09 Note: One successful gmin step
Trying gmin =   1.1254E-09 Note: One successful gmin step
Trying gmin =   1.2278E-10 Note: One successful gmin step
Trying gmin =   1.2278E-11 Note: One successful gmin step
Trying gmin =   1.2278E-12 Note: One successful gmin step
Trying gmin =   1.0000E-12 Note: One successful gmin step
Note: True gmin stepping completed
 Reference value :  0.00000e+00
No compatibility mode selected!


Circuit: * ldo netlist 

Doing analysis at TEMP = 0.000000 and TNOM = 27.000000


No. of Data Rows : 1
bg_out = 1.097044e+00
inn = 1.177000e+00
inp = 1.176976e+00
l1#branch = -5.55112e-17
ldo_out = 1.802600e+00
m.xm1.msky130_fd_pr__nfet_g5v0d10v5#body = 1.857098e-11
m.xm1.msky130_fd_pr__nfet_g5v0d10v5#dbody = 4.061174e-11
m.xm1.msky130_fd_pr__nfet_g5v0d10v5#sbody = 1.510121e-11
m.xm2.msky130_fd_pr__pfet_g5v0d10v5#body = 2.500000e+00
m.xm2.msky130_fd_pr__pfet_g5v0d10v5#dbody = 2.500000e+00
m.xm2.msky130_fd_pr__pfet_g5v0d10v5#sbody = 2.500000e+00
m.xm3.msky130_fd_pr__pfet_g5v0d10v5#body = 2.500000e+00
m.xm3.msky130_fd_pr__pfet_g5v0d10v5#dbody = 2.500000e+00
m.xm3.msky130_fd_pr__pfet_g5v0d10v5#sbody = 2.500000e+00
m.xm4.msky130_fd_pr__pfet_g5v0d10v5#body = 2.500000e+00
m.xm4.msky130_fd_pr__pfet_g5v0d10v5#dbody = 2.500000e+00
m.xm4.msky130_fd_pr__pfet_g5v0d10v5#sbody = 2.500000e+00
m.xm5.msky130_fd_pr__pfet_g5v0d10v5#body = 2.500000e+00
m.xm5.msky130_fd_pr__pfet_g5v0d10v5#dbody = 2.500000e+00
m.xm5.msky130_fd_pr__pfet_g5v0d10v5#sbody = 2.500000e+00
m.xm6.msky130_fd_pr__nfet_g5v0d10v5#body = 1.199283e-11
m.xm6.msky130_fd_pr__nfet_g5v0d10v5#dbody = 2.998206e-11
m.xm6.msky130_fd_pr__nfet_g5v0d10v5#sbody = 5.996418e-12
m.xm7.msky130_fd_pr__pfet_g5v0d10v5#body = 2.500000e+00
m.xm7.msky130_fd_pr__pfet_g5v0d10v5#dbody = 2.500000e+00
m.xm7.msky130_fd_pr__pfet_g5v0d10v5#sbody = 2.500000e+00
m.xm8.msky130_fd_pr__pfet_g5v0d10v5#body = 2.500000e+00
m.xm8.msky130_fd_pr__pfet_g5v0d10v5#dbody = 2.500000e+00
m.xm8.msky130_fd_pr__pfet_g5v0d10v5#sbody = 2.500000e+00
m.xm9.msky130_fd_pr__nfet_g5v0d10v5#body = 1.881559e-11
m.xm9.msky130_fd_pr__nfet_g5v0d10v5#dbody = 4.293943e-11
m.xm9.msky130_fd_pr__nfet_g5v0d10v5#sbody = 1.350732e-11
m.xm10.msky130_fd_pr__nfet_g5v0d10v5#body = 1.851851e-11
m.xm10.msky130_fd_pr__nfet_g5v0d10v5#dbody = 4.219674e-11
m.xm10.msky130_fd_pr__nfet_g5v0d10v5#sbody = 1.335878e-11
m.xm11.msky130_fd_pr__pfet_g5v0d10v5#body = 2.500000e+00
m.xm11.msky130_fd_pr__pfet_g5v0d10v5#dbody = 2.500000e+00
m.xm11.msky130_fd_pr__pfet_g5v0d10v5#sbody = 2.500000e+00
m.xm12.msky130_fd_pr__pfet_g5v0d10v5#body = 2.500000e+00
m.xm12.msky130_fd_pr__pfet_g5v0d10v5#dbody = 2.500000e+00
m.xm12.msky130_fd_pr__pfet_g5v0d10v5#sbody = 2.500000e+00
m.xm13.msky130_fd_pr__nfet_g5v0d10v5#body = 2.049744e-12
m.xm13.msky130_fd_pr__nfet_g5v0d10v5#dbody = 5.124351e-12
m.xm13.msky130_fd_pr__nfet_g5v0d10v5#sbody = 1.024881e-12
m.xm14.msky130_fd_pr__pfet_g5v0d10v5#body = 2.500000e+00
m.xm14.msky130_fd_pr__pfet_g5v0d10v5#dbody = 2.500000e+00
m.xm14.msky130_fd_pr__pfet_g5v0d10v5#sbody = 2.500000e+00
m.xm15.msky130_fd_pr__nfet_g5v0d10v5#body = 1.149588e-15
m.xm15.msky130_fd_pr__nfet_g5v0d10v5#dbody = 2.873914e-15
m.xm15.msky130_fd_pr__nfet_g5v0d10v5#sbody = 5.748506e-16
m.xm16.msky130_fd_pr__nfet_g5v0d10v5#body = 4.596262e-11
m.xm16.msky130_fd_pr__nfet_g5v0d10v5#dbody = 8.548143e-11
m.xm16.msky130_fd_pr__nfet_g5v0d10v5#sbody = 5.240643e-11
m.xm17.msky130_fd_pr__pfet_g5v0d10v5#body = 2.500000e+00
m.xm17.msky130_fd_pr__pfet_g5v0d10v5#dbody = 2.500000e+00
m.xm17.msky130_fd_pr__pfet_g5v0d10v5#sbody = 2.500000e+00
m.xm18.msky130_fd_pr__nfet_g5v0d10v5#body = 2.086716e-11
m.xm18.msky130_fd_pr__nfet_g5v0d10v5#dbody = 5.180679e-11
m.xm18.msky130_fd_pr__nfet_g5v0d10v5#sbody = 1.043359e-11
m.xm19.msky130_fd_pr__nfet_g5v0d10v5#body = 1.861601e-11
m.xm19.msky130_fd_pr__nfet_g5v0d10v5#dbody = 4.072431e-11
m.xm19.msky130_fd_pr__nfet_g5v0d10v5#sbody = 1.512372e-11
m.xm20.msky130_fd_pr__nfet_g5v0d10v5#body = 1.227274e-11
m.xm20.msky130_fd_pr__nfet_g5v0d10v5#dbody = 3.068183e-11
m.xm20.msky130_fd_pr__nfet_g5v0d10v5#sbody = 6.136380e-12
m.xm22.msky130_fd_pr__nfet_g5v0d10v5#body = 2.907895e-12
m.xm22.msky130_fd_pr__nfet_g5v0d10v5#dbody = 7.269734e-12
m.xm22.msky130_fd_pr__nfet_g5v0d10v5#sbody = 1.453952e-12
m.xm24.msky130_fd_pr__pfet_g5v0d10v5#body = 2.500000e+00
m.xm24.msky130_fd_pr__pfet_g5v0d10v5#dbody = 2.500000e+00
m.xm24.msky130_fd_pr__pfet_g5v0d10v5#sbody = 2.500000e+00
m.xm26.msky130_fd_pr__pfet_g5v0d10v5#body = 2.500000e+00
m.xm26.msky130Note: Starting true gmin stepping
Trying gmin =   1.0000E-03 Note: One successful gmin step
Trying gmin =   1.0000E-04 Note: One successful gmin step
Trying gmin =   1.0000E-05 Note: One successful gmin step
Trying gmin =   1.0000E-06 Note: One successful gmin step
Trying gmin =   1.0000E-07 Warning: Further gmin increment
Trying gmin =   5.6234E-07 Note: One successful gmin step
Trying gmin =   2.3714E-07 Note: One successful gmin step
Trying gmin =   6.4938E-08 Warning: Further gmin increment
Trying gmin =   1.7154E-07 Note: One successful gmin step
Trying gmin =   1.0554E-07 Note: One successful gmin step
Trying gmin =   6.4938E-08 Warning: Further gmin increment
Trying gmin =   9.3477E-08 Note: One successful gmin step
Trying gmin =   7.7911E-08 Warning: Further gmin increment
Trying gmin =   8.9316E-08 Warning: Further gmin increment
Trying gmin =   9.2419E-08 Note: One successful gmin step
Trying gmin =   9.1372E-08 Note: One successful gmin step
Trying gmin =   8.9826E-08 Note: One successful gmin step
Trying gmin =   8.7554E-08 Note: One successful gmin step
Trying gmin =   8.4254E-08 Note: One successful gmin step
Trying gmin =   7.9536E-08 Note: One successful gmin step
Trying gmin =   7.2949E-08 Note: One successful gmin step
Trying gmin =   6.4078E-08 Note: One successful gmin step
Trying gmin =   5.2752E-08 Note: One successful gmin step
Trying gmin =   3.9403E-08 Note: One successful gmin step
Trying gmin =   2.5437E-08 Note: One successful gmin step
Trying gmin =   1.3194E-08 Note: One successful gmin step
Trying gmin =   4.9290E-09 Note: One successful gmin step
Trying gmin =   1.1254E-09 Note: One successful gmin step
Trying gmin =   1.2278E-10 Note: One successful gmin step
Trying gmin =   1.2278E-11 Note: One successful gmin step
Trying gmin =   1.2278E-12 Note: One successful gmin step
Trying gmin =   1.0000E-12 Note: One successful gmin step
Note: True gmin stepping completed
 Reference value :  1.00000e+00_fd_pr__pfet_g5v0d10v5#dbody = 2.500000e+00
m.xm26.msky130_fd_pr__pfet_g5v0d10v5#sbody = 2.500000e+00
mir = 1.253045e+00
net1 = 7.690047e-01
net2 = 9.191257e-05
net3 = 8.225284e-01
net4 = 2.326239e-01
net5 = 1.256647e+00
net6 = 9.594185e-01
net7 = 8.225036e-01
net8 = 1.317496e+00
net9 = 1.341262e+00
net10 = 1.639778e-01
net11 = 1.654927e+00
net12 = 1.654927e+00
net13 = 0.000000e+00
out = 1.654927e+00
pos = 1.097238e+00
q.xq2.qsky130_fd_pr__pnp_05v5_w0p68l0p68#collcx = 1.781599e-03
q.xq3.qsky130_fd_pr__pnp_05v5_w0p68l0p68#collcx = 2.241431e-04
q.xq4.qsky130_fd_pr__pnp_05v5_w0p68l0p68#collcx = 2.241431e-04
q.xq8.qsky130_fd_pr__pnp_05v5_w0p68l0p68#collcx = 2.241431e-04
q.xq10.qsky130_fd_pr__pnp_05v5_w0p68l0p68#collcx = 2.241431e-04
q.xq12.qsky130_fd_pr__pnp_05v5_w0p68l0p68#collcx = 2.241431e-04
q.xq14.qsky130_fd_pr__pnp_05v5_w0p68l0p68#collcx = 2.241431e-04
q.xq16.qsky130_fd_pr__pnp_05v5_w0p68l0p68#collcx = 2.241431e-04
q.xq18.qsky130_fd_pr__pnp_05v5_w0p68l0p68#collcx = 2.241431e-04
vb = 9.818170e-01
vdd = 2.500000e+00
vs#branch = -1.67687e-04
vt#branch = 0.000000e+00
xc1.a = 0.000000e+00
xc1.b1 = 0.000000e+00
xc3.a = 1.654927e+00
xc3.b1 = 1.654927e+00
xr1.xsky130_fd_pr__res_xhigh_po_0p69.ra = 8.299441e-01
xr2.xsky130_fd_pr__res_xhigh_po_0p69.ra = 8.299689e-01
xr3.xsky130_fd_pr__res_xhigh_po_0p69.ra = 5.415567e-03
xr4.xsky130_fd_pr__res_xhigh_po_0p69.ra = 7.711978e-01
xr5.xsky130_fd_pr__res_xhigh_po_0p69.ra = 5.415393e-03
xr6.xsky130_fd_pr__res_xhigh_po_0p69.ra = 7.911104e-03
xr7.xsky130_fd_pr__res_xhigh_po_0p69.ra = 1.654927e+00
xr8.xsky130_fd_pr__res_xhigh_po_0p69.ra = 1.109265e+00
xr9.xsky130_fd_pr__res_xhigh_po_0p69.ra = 1.241652e-02
Doing analysis at TEMP = 0.000000 and TNOM = 27.000000


No. of Data Rows : 91
Note: Starting true gmin stepping
Trying gmin =   1.0000E-03 Note: One successful gmin step
Trying gmin =   1.0000E-04 Note: One successful gmin step
Trying gmin =   1.0000E-05 Note: One successful gmin step
Trying gmin =   1.0000E-06 Note: One successful gmin step
Trying gmin =   1.0000E-07 Warning: Further gmin increment
Trying gmin =   5.6234E-07 Note: One successful gmin step
Trying gmin =   2.3714E-07 Note: One successful gmin step
Trying gmin =   6.4938E-08 Warning: Further gmin increment
Trying gmin =   1.7154E-07 Note: One successful gmin step
Trying gmin =   1.0554E-07 Note: One successful gmin step
Trying gmin =   6.4938E-08 Warning: Further gmin increment
Trying gmin =   9.3477E-08 Note: One successful gmin step
Trying gmin =   7.7911E-08 Warning: Further gmin increment
Trying gmin =   8.9316E-08 Warning: Further gmin increment
Trying gmin =   9.2419E-08 Note: One successful gmin step
Trying gmin =   9.1372E-08 Note: One successful gmin step
Trying gmin =   8.9826E-08 Note: One successful gmin step
Trying gmin =   8.7554E-08 Note: One successful gmin step
Trying gmin =   8.4254E-08 Note: One successful gmin step
Trying gmin =   7.9536E-08 Note: One successful gmin step
Trying gmin =   7.2949E-08 Note: One successful gmin step
Trying gmin =   6.4078E-08 Note: One successful gmin step
Trying gmin =   5.2752E-08 Note: One successful gmin step
Trying gmin =   3.9403E-08 Note: One successful gmin step
Trying gmin =   2.5437E-08 Note: One successful gmin step
Trying gmin =   1.3194E-08 Note: One successful gmin step
Trying gmin =   4.9290E-09 Note: One successful gmin step
Trying gmin =   1.1254E-09 Note: One successful gmin step
Trying gmin =   1.2278E-10 Note: One successful gmin step
Trying gmin =   1.2278E-11 Note: One successful gmin step
Trying gmin =   1.2278E-12 Note: One successful gmin step
Trying gmin =   1.0000E-12 Note: One successful gmin step
Note: True gmin stepping completed
 Reference value :  1.00000e+00Note: Starting true gmin stepping
Trying gmin =   1.0000E-03 Note: One successful gmin step
Trying gmin =   1.0000E-04 Note: One successful gmin step
Trying gmin =   1.0000E-05 Note: One successful gmin step
Trying gmin =   1.0000E-06 Note: One successful gmin step
Trying gmin =   1.0000E-07 Note: One successful gmin step
Trying gmin =   1.0000E-08 Warning: Further gmin increment
Trying gmin =   5.6234E-08 Warning: Further gmin increment
Trying gmin =   8.6596E-08 Note: One successful gmin step
Trying gmin =   6.9783E-08 Warning: Further gmin increment
Trying gmin =   8.2047E-08 Note: One successful gmin step
Trying gmin =   7.5667E-08 Warning: Further gmin increment
Trying gmin =   8.0403E-08 Warning: Further gmin increment
Trying gmin =   8.1633E-08 Note: One successful gmin step
Trying gmin =   8.1016E-08 Note: One successful gmin step
Trying gmin =   8.0099E-08 Warning: Further gmin increment
Trying gmin =   8.0785E-08 Note: One successful gmin step
Trying gmin =   8.0441E-08 Warning: Further gmin increment
Trying gmin =   8.0699E-08 Note: One successful gmin step
Trying gmin =   8.0570E-08 Warning: Further gmin increment
Trying gmin =   8.0667E-08 Note: One successful gmin step
Trying gmin =   8.0619E-08 Warning: Further gmin increment
Trying gmin =   8.0655E-08 Note: One successful gmin step
Trying gmin =   8.0637E-08 Warning: Further gmin increment
Trying gmin =   8.0650E-08 Note: One successful gmin step
Trying gmin =   8.0644E-08 Note: One successful gmin step
Trying gmin =   8.0633E-08 Warning: Further gmin increment
Trying gmin =   8.0641E-08 Note: One successful gmin step
Trying gmin =   8.0637E-08 Note: One successful gmin step
Trying gmin =   8.0631E-08 Warning: Further gmin increment
Trying gmin =   8.0636E-08 Warning: Last gmin step failed
Warning: True gmin stepping failed
Note: Starting dynamic gmin stepping
Trying gmin =   1.0000E-03 Note: One successful gmin step
Trying gmin =   1.0000E-04 Note: One successful gmin step
Trying gmin =   1.0000E-05 Note: One successful gmin step
Trying gmin =   1.0000E-06 Warning: Further gmin increment
Trying gmin =   5.6234E-06 Note: One successful gmin step
Trying gmin =   2.3714E-06 Note: One successful gmin step
Trying gmin =   6.4938E-07 Warning: Further gmin increment
Trying gmin =   1.7154E-06 Note: One successful gmin step
Trying gmin =   1.0554E-06 Warning: Further gmin increment
Trying gmin =   1.5193E-06 Note: One successful gmin step
Trying gmin =   1.2663E-06 Warning: Further gmin increment
Trying gmin =   1.4517E-06 Note: One successful gmin step
Trying gmin =   1.3558E-06 Note: One successful gmin step
Trying gmin =   1.2238E-06 Warning: Further gmin increment
Trying gmin =   1.3215E-06 Warning: Further gmin increment
Trying gmin =   1.3472E-06 Note: One successful gmin step
Trying gmin =   1.3343E-06 Warning: Further gmin increment
Trying gmin =   1.3439E-06 Note: One successful gmin step
Trying gmin =   1.3391E-06 Note: One successful gmin step
Trying gmin =   1.3319E-06 Warning: Further gmin increment
Trying gmin =   1.3373E-06 Note: One successful gmin step
Trying gmin =   1.3346E-06 Warning: Further gmin increment
Trying gmin =   1.3366E-06 Note: One successful gmin step
Trying gmin =   1.3356E-06 Note: One successful gmin step
Trying gmin =   1.3341E-06 Note: One successful gmin step
Trying gmin =   1.3318E-06 Note: One successful gmin step
Trying gmin =   1.3284E-06 Note: One successful gmin step
Trying gmin =   1.3233E-06 Note: One successful gmin step
Trying gmin =   1.3157E-06 Note: One successful gmin step
Trying gmin =   1.3043E-06 Note: One successful gmin step
Trying gmin =   1.2875E-06 Note: One successful gmin step
Trying gmin =   1.2627E-06 Note: One successful gmin step
Trying gmin =   1.2263E-06 Note: One successful gmin step
Trying gmin =   1.1738E-06 Note: One successful gmin step
Trying gmin =   1.0991E-06 Note: One successful gmin step
Trying gmin =   9.9594E-07 Note: One successful gmin step
Trying gmin =   8.5905E-07 Note: One successful gmin step
Trying gmin =   6.8816E-07 Note: One successful gmin step
Trying gmin =   4.9340E-07 Note: One successful gmin step
Trying gmin =   2.9955E-07 Note: One successful gmin step
Trying gmin =   1.4170E-07 Note: One successful gmin step
Trying gmin =   4.6102E-08 Note: One successful gmin step
Trying gmin =   8.5556E-09 Note: One successful gmin step
Trying gmin =   8.5556E-10 Note: One successful gmin step
Trying gmin =   8.5556E-11 Note: One successful gmin step
Trying gmin =   8.5556E-12 Note: One successful gmin step
Trying gmin =   1.0000E-12 Note: One successful gmin step
Note: Dynamic gmin stepping completed
 Reference value :  2.80000e+00Note: Starting true gmin stepping
Trying gmin =   1.0000E-03 Note: One successful gmin step
Trying gmin =   1.0000E-04 Note: One successful gmin step
Trying gmin =   1.0000E-05 Note: One successful gmin step
Trying gmin =   1.0000E-06 Note: One successful gmin step
Trying gmin =   1.0000E-07 Note: One successful gmin step
Trying gmin =   1.0000E-08 Note: One successful gmin step
Trying gmin =   1.0000E-09 Warning: Further gmin increment
Trying gmin =   5.6234E-09 Note: One successful gmin step
Trying gmin =   2.3714E-09 Note: One successful gmin step
Trying gmin =   6.4938E-10 Note: One successful gmin step
Trying gmin =   9.3057E-11 Warning: Further gmin increment
Trying gmin =   3.9954E-10 Warning: Further gmin increment
Trying gmin =   5.7513E-10 Note: One successful gmin step
Trying gmin =   4.7936E-10 Warning: Further gmin increment
Trying gmin =   5.4953E-10 Note: One successful gmin step
Trying gmin =   5.1325E-10 Note: One successful gmin step
Trying gmin =   4.7936E-10 Note: One successful gmin step
Trying gmin =   4.3268E-10 Note: One successful gmin step
Trying gmin =   3.7105E-10 Note: One successful gmin step
Trying gmin =   2.9466E-10 Note: One successful gmin step
Trying gmin =   2.0852E-10 Note: One successful gmin step
Trying gmin =   1.2413E-10 Note: One successful gmin step
Trying gmin =   5.7018E-11 Note: One successful gmin step
Trying gmin =   1.7750E-11 Note: One successful gmin step
Trying gmin =   3.0829E-12 Note: One successful gmin step
Trying gmin =   1.0000E-12 Note: One successful gmin step
Note: True gmin stepping completed
 Reference value :  1.34000e+00Note: Starting true gmin stepping
Trying gmin =   1.0000E-03 Note: One successful gmin step
Trying gmin =   1.0000E-04 Note: One successful gmin step
Trying gmin =   1.0000E-05 Note: One successful gmin step
Trying gmin =   1.0000E-06 Note: One successful gmin step
Trying gmin =   1.0000E-07 Note: One successful gmin step
Trying gmin =   1.0000E-08 Note: One successful gmin step
Trying gmin =   1.0000E-09 Note: One successful gmin step
Trying gmin =   3.1623E-10 Warning: Further gmin increment
Trying gmin =   7.4989E-10 Note: One successful gmin step
Trying gmin =   4.8697E-10 Note: One successful gmin step
Trying gmin =   2.5483E-10 Warning: Further gmin increment
Trying gmin =   4.1418E-10 Note: One successful gmin step
Trying gmin =   3.2488E-10 Warning: Further gmin increment
Trying gmin =   3.8978E-10 Note: One successful gmin step
Trying gmin =   3.5585E-10 Note: One successful gmin step
Trying gmin =   3.1042E-10 Note: One successful gmin step
Trying gmin =   2.5290E-10 Note: One successful gmin step
Trying gmin =   1.8598E-10 Note: One successful gmin step
Trying gmin =   1.1729E-10 Note: One successful gmin step
Trying gmin =   5.8736E-11 Note: One successful gmin step
Trying gmin =   2.0816E-11 Note: One successful gmin step
Trying gmin =   4.3917E-12 Note: One successful gmin step
Trying gmin =   1.0000E-12 Note: One successful gmin step
Note: True gmin stepping completed
 Reference value :  1.16000e+00pm                  =  6.358184e+01
Doing analysis at TEMP = 0.000000 and TNOM = 27.000000


No. of Data Rows : 91
psrr100             =  -5.981542e+01
psrr100k            =  -2.624480e+01
Doing analysis at TEMP = 0.000000 and TNOM = 27.000000


No. of Data Rows : 86
temp_coeff = 2.603450e+01
Doing analysis at TEMP = 0.000000 and TNOM = 27.000000


No. of Data Rows : 141
vldo_sup_2          =  1.803353e+00
vldo_sup_2_8        =  1.802350e+00
line_reg = 1.253750e-03
Note: No ".plot", ".print", or ".fourier" lines; no simulations run
vin                 =  1.764115e+00
dropout = 1.150000e-04
