Note: Starting true gmin stepping
Trying gmin =   1.0000E-03 Note: One successful gmin step
Trying gmin =   1.0000E-04 Note: One successful gmin step
Trying gmin =   1.0000E-05 Note: One successful gmin step
Trying gmin =   1.0000E-06 Note: One successful gmin step
Trying gmin =   1.0000E-07 Note: One successful gmin step
Trying gmin =   1.0000E-08 Warning: Further gmin increment
Trying gmin =   5.6234E-08 Note: One successful gmin step
Trying gmin =   2.3714E-08 Warning: Further gmin increment
Trying gmin =   4.5316E-08 Note: One successful gmin step
Trying gmin =   3.6517E-08 Note: One successful gmin step
Trying gmin =   2.6416E-08 Note: One successful gmin step
Trying gmin =   1.6253E-08 Note: One successful gmin step
Trying gmin =   7.8439E-09 Note: One successful gmin step
Trying gmin =   2.6298E-09 Note: One successful gmin step
Trying gmin =   5.1051E-10 Note: One successful gmin step
Trying gmin =   5.1051E-11 Note: One successful gmin step
Trying gmin =   5.1051E-12 Note: One successful gmin step
Trying gmin =   1.0000E-12 Note: One successful gmin step
Note: True gmin stepping completed
 Reference value :  0.00000e+00
No compatibility mode selected!


Circuit: * ldo netlist 

Doing analysis at TEMP = 0.000000 and TNOM = 27.000000


No. of Data Rows : 1
bg_out = 6.173779e-01
inn = 8.341914e-01
inp = 8.336666e-01
l1#branch = 1.387779e-17
ldo_out = 9.324359e-01
m.xm1.msky130_fd_pr__nfet_g5v0d10v5#body = 1.199570e-11
m.xm1.msky130_fd_pr__nfet_g5v0d10v5#dbody = 2.913295e-11
m.xm1.msky130_fd_pr__nfet_g5v0d10v5#sbody = 6.854159e-12
m.xm2.msky130_fd_pr__pfet_g5v0d10v5#body = 2.100000e+00
m.xm2.msky130_fd_pr__pfet_g5v0d10v5#dbody = 2.100000e+00
m.xm2.msky130_fd_pr__pfet_g5v0d10v5#sbody = 2.100000e+00
m.xm3.msky130_fd_pr__pfet_g5v0d10v5#body = 2.100000e+00
m.xm3.msky130_fd_pr__pfet_g5v0d10v5#dbody = 2.100000e+00
m.xm3.msky130_fd_pr__pfet_g5v0d10v5#sbody = 2.100000e+00
m.xm4.msky130_fd_pr__pfet_g5v0d10v5#body = 2.100000e+00
m.xm4.msky130_fd_pr__pfet_g5v0d10v5#dbody = 2.100000e+00
m.xm4.msky130_fd_pr__pfet_g5v0d10v5#sbody = 2.100000e+00
m.xm5.msky130_fd_pr__pfet_g5v0d10v5#body = 2.100000e+00
m.xm5.msky130_fd_pr__pfet_g5v0d10v5#dbody = 2.100000e+00
m.xm5.msky130_fd_pr__pfet_g5v0d10v5#sbody = 2.100000e+00
m.xm6.msky130_fd_pr__nfet_g5v0d10v5#body = 1.134203e-11
m.xm6.msky130_fd_pr__nfet_g5v0d10v5#dbody = 2.835507e-11
m.xm6.msky130_fd_pr__nfet_g5v0d10v5#sbody = 5.671016e-12
m.xm7.msky130_fd_pr__pfet_g5v0d10v5#body = 2.100000e+00
m.xm7.msky130_fd_pr__pfet_g5v0d10v5#dbody = 2.100000e+00
m.xm7.msky130_fd_pr__pfet_g5v0d10v5#sbody = 2.100000e+00
m.xm8.msky130_fd_pr__pfet_g5v0d10v5#body = 2.100000e+00
m.xm8.msky130_fd_pr__pfet_g5v0d10v5#dbody = 2.100000e+00
m.xm8.msky130_fd_pr__pfet_g5v0d10v5#sbody = 2.100000e+00
m.xm9.msky130_fd_pr__nfet_g5v0d10v5#body = 1.505758e-11
m.xm9.msky130_fd_pr__nfet_g5v0d10v5#dbody = 3.762245e-11
m.xm9.msky130_fd_pr__nfet_g5v0d10v5#sbody = 7.550297e-12
m.xm10.msky130_fd_pr__nfet_g5v0d10v5#body = 1.220829e-11
m.xm10.msky130_fd_pr__nfet_g5v0d10v5#dbody = 3.049922e-11
m.xm10.msky130_fd_pr__nfet_g5v0d10v5#sbody = 6.125650e-12
m.xm11.msky130_fd_pr__pfet_g5v0d10v5#body = 2.100000e+00
m.xm11.msky130_fd_pr__pfet_g5v0d10v5#dbody = 2.100000e+00
m.xm11.msky130_fd_pr__pfet_g5v0d10v5#sbody = 2.100000e+00
m.xm12.msky130_fd_pr__pfet_g5v0d10v5#body = 2.100000e+00
m.xm12.msky130_fd_pr__pfet_g5v0d10v5#dbody = 2.100000e+00
m.xm12.msky130_fd_pr__pfet_g5v0d10v5#sbody = 2.100000e+00
m.xm13.msky130_fd_pr__nfet_g5v0d10v5#body = 1.075202e-14
m.xm13.msky130_fd_pr__nfet_g5v0d10v5#dbody = 2.687998e-14
m.xm13.msky130_fd_pr__nfet_g5v0d10v5#sbody = 5.376076e-15
m.xm14.msky130_fd_pr__pfet_g5v0d10v5#body = 2.100000e+00
m.xm14.msky130_fd_pr__pfet_g5v0d10v5#dbody = 2.100000e+00
m.xm14.msky130_fd_pr__pfet_g5v0d10v5#sbody = 2.100000e+00
m.xm15.msky130_fd_pr__nfet_g5v0d10v5#body = 1.723606e-11
m.xm15.msky130_fd_pr__nfet_g5v0d10v5#dbody = 4.308983e-11
m.xm15.msky130_fd_pr__nfet_g5v0d10v5#sbody = 8.618029e-12
m.xm16.msky130_fd_pr__nfet_g5v0d10v5#body = 3.667751e-11
m.xm16.msky130_fd_pr__nfet_g5v0d10v5#dbody = 7.083887e-11
m.xm16.msky130_fd_pr__nfet_g5v0d10v5#sbody = 3.919366e-11
m.xm17.msky130_fd_pr__pfet_g5v0d10v5#body = 2.100000e+00
m.xm17.msky130_fd_pr__pfet_g5v0d10v5#dbody = 2.100000e+00
m.xm17.msky130_fd_pr__pfet_g5v0d10v5#sbody = 2.100000e+00
m.xm18.msky130_fd_pr__nfet_g5v0d10v5#body = 1.619696e-11
m.xm18.msky130_fd_pr__nfet_g5v0d10v5#dbody = 4.049215e-11
m.xm18.msky130_fd_pr__nfet_g5v0d10v5#sbody = 8.098487e-12
m.xm19.msky130_fd_pr__nfet_g5v0d10v5#body = 1.276364e-11
m.xm19.msky130_fd_pr__nfet_g5v0d10v5#dbody = 3.105280e-11
m.xm19.msky130_fd_pr__nfet_g5v0d10v5#sbody = 7.238130e-12
m.xm20.msky130_fd_pr__nfet_g5v0d10v5#body = 1.159157e-11
m.xm20.msky130_fd_pr__nfet_g5v0d10v5#dbody = 2.897893e-11
m.xm20.msky130_fd_pr__nfet_g5v0d10v5#sbody = 5.795792e-12
m.xm22.msky130_fd_pr__nfet_g5v0d10v5#body = 4.281811e-13
m.xm22.msky130_fd_pr__nfet_g5v0d10v5#dbody = 1.070452e-12
m.xm22.msky130_fd_pr__nfet_g5v0d10v5#sbody = 2.140916e-13
m.xm24.msky130_fd_pr__pfet_g5v0d10v5#body = 2.100000e+00
m.xm24.msky130_fd_pr__pfet_g5v0d10v5#dbody = 2.100000e+00
m.xm24.msky130_fd_pr__pfet_g5v0d10v5#sbody = 2.100000e+00
m.xm26.msky130_fd_pr__pfet_g5v0d10v5#body = 2.100000e+00
m.xm26.msky130Note: Starting true gmin stepping
Trying gmin =   1.0000E-03 Note: One successful gmin step
Trying gmin =   1.0000E-04 Note: One successful gmin step
Trying gmin =   1.0000E-05 Note: One successful gmin step
Trying gmin =   1.0000E-06 Note: One successful gmin step
Trying gmin =   1.0000E-07 Note: One successful gmin step
Trying gmin =   1.0000E-08 Warning: Further gmin increment
Trying gmin =   5.6234E-08 Note: One successful gmin step
Trying gmin =   2.3714E-08 Warning: Further gmin increment
Trying gmin =   4.5316E-08 Note: One successful gmin step
Trying gmin =   3.6517E-08 Note: One successful gmin step
Trying gmin =   2.6416E-08 Note: One successful gmin step
Trying gmin =   1.6253E-08 Note: One successful gmin step
Trying gmin =   7.8439E-09 Note: One successful gmin step
Trying gmin =   2.6298E-09 Note: One successful gmin step
Trying gmin =   5.1051E-10 Note: One successful gmin step
Trying gmin =   5.1051E-11 Note: One successful gmin step
Trying gmin =   5.1051E-12 Note: One successful gmin step
Trying gmin =   1.0000E-12 Note: One successful gmin step
Note: True gmin stepping completed
_fd_pr__pfet_g5v0d10v5#dbody = 2.100000e+00
m.xm26.msky130_fd_pr__pfet_g5v0d10v5#sbody = 2.100000e+00
mir = 9.253992e-01
net1 = 6.094560e-01
net2 = 1.378857e+00
net3 = 6.100508e-01
net4 = 3.424880e-02
net5 = 9.868345e-01
net6 = 9.073545e-01
net7 = 6.095371e-01
net8 = 9.757997e-01
net9 = 1.203743e+00
net10 = 8.601023e-04
net11 = 1.295745e+00
net12 = 1.295745e+00
net13 = 0.000000e+00
out = 1.295745e+00
pos = 6.202904e-01
q.xq2.qsky130_fd_pr__pnp_05v5_w0p68l0p68#collcx = 3.329113e-07
q.xq3.qsky130_fd_pr__pnp_05v5_w0p68l0p68#collcx = 3.248744e-07
q.xq4.qsky130_fd_pr__pnp_05v5_w0p68l0p68#collcx = 3.248744e-07
q.xq8.qsky130_fd_pr__pnp_05v5_w0p68l0p68#collcx = 3.248744e-07
q.xq10.qsky130_fd_pr__pnp_05v5_w0p68l0p68#collcx = 3.248744e-07
q.xq12.qsky130_fd_pr__pnp_05v5_w0p68l0p68#collcx = 3.248744e-07
q.xq14.qsky130_fd_pr__pnp_05v5_w0p68l0p68#collcx = 3.248744e-07
q.xq16.qsky130_fd_pr__pnp_05v5_w0p68l0p68#collcx = 3.248744e-07
q.xq18.qsky130_fd_pr__pnp_05v5_w0p68l0p68#collcx = 3.248744e-07
vb = 9.273240e-01
vdd = 2.100000e+00
vs#branch = -7.75412e-05
vt#branch = 0.000000e+00
xc1.a = 0.000000e+00
xc1.b1 = 0.000000e+00
xc3.a = 1.295745e+00
xc3.b1 = 1.295745e+00
xr1.xsky130_fd_pr__res_xhigh_po_0p69.ra = 6.132058e-01
xr2.xsky130_fd_pr__res_xhigh_po_0p69.ra = 6.137196e-01
xr3.xsky130_fd_pr__res_xhigh_po_0p69.ra = 3.759635e-03
xr4.xsky130_fd_pr__res_xhigh_po_0p69.ra = 6.094594e-01
xr5.xsky130_fd_pr__res_xhigh_po_0p69.ra = 3.756315e-03
xr6.xsky130_fd_pr__res_xhigh_po_0p69.ra = 3.807024e-03
xr7.xsky130_fd_pr__res_xhigh_po_0p69.ra = 1.295745e+00
xr8.xsky130_fd_pr__res_xhigh_po_0p69.ra = 6.268270e-01
xr9.xsky130_fd_pr__res_xhigh_po_0p69.ra = 6.677618e-03
Doing analysis at TEMP = 0.000000 and TNOM = 27.000000


No. of Data Rows : 91
Note: Starting true gmin stepping
Trying gmin =   1.0000E-03 Note: One successful gmin step
Trying gmin =   1.0000E-04 Note: One successful gmin step
Trying gmin =   1.0000E-05 Note: One successful gmin step
Trying gmin =   1.0000E-06 Note: One successful gmin step
Trying gmin =   1.0000E-07 Note: One successful gmin step
Trying gmin =   1.0000E-08 Warning: Further gmin increment
Trying gmin =   5.6234E-08 Note: One successful gmin step
Trying gmin =   2.3714E-08 Warning: Further gmin increment
Trying gmin =   4.5316E-08 Note: One successful gmin step
Trying gmin =   3.6517E-08 Note: One successful gmin step
Trying gmin =   2.6416E-08 Note: One successful gmin step
Trying gmin =   1.6253E-08 Note: One successful gmin step
Trying gmin =   7.8439E-09 Note: One successful gmin step
Trying gmin =   2.6298E-09 Note: One successful gmin step
Trying gmin =   5.1051E-10 Note: One successful gmin step
Trying gmin =   5.1051E-11 Note: One successful gmin step
Trying gmin =   5.1051E-12 Note: One successful gmin step
Trying gmin =   1.0000E-12 Note: One successful gmin step
Note: True gmin stepping completed
 Reference value :  1.00000e+00Note: Starting true gmin stepping
Trying gmin =   1.0000E-03 Note: One successful gmin step
Trying gmin =   1.0000E-04 Note: One successful gmin step
Trying gmin =   1.0000E-05 Note: One successful gmin step
Trying gmin =   1.0000E-06 Note: One successful gmin step
Trying gmin =   1.0000E-07 Note: One successful gmin step
Trying gmin =   3.1623E-08 Warning: Further gmin increment
Trying gmin =   7.4989E-08 Note: One successful gmin step
Trying gmin =   4.8697E-08 Note: One successful gmin step
Trying gmin =   2.5483E-08 Warning: Further gmin increment
Trying gmin =   4.1418E-08 Warning: Further gmin increment
Trying gmin =   4.6765E-08 Note: One successful gmin step
Trying gmin =   4.4010E-08 Warning: Further gmin increment
Trying gmin =   4.6061E-08 Warning: Further gmin increment
Trying gmin =   4.6588E-08 Note: One successful gmin step
Trying gmin =   4.6324E-08 Note: One successful gmin step
Trying gmin =   4.6192E-08 Note: One successful gmin step
Trying gmin =   4.5995E-08 Note: One successful gmin step
Trying gmin =   4.5702E-08 Note: One successful gmin step
Trying gmin =   4.5265E-08 Note: One successful gmin step
Trying gmin =   4.4617E-08 Note: One successful gmin step
Trying gmin =   4.3663E-08 Warning: Further gmin increment
Trying gmin =   4.4377E-08 Note: One successful gmin step
Trying gmin =   4.4019E-08 Warning: Further gmin increment
Trying gmin =   4.4287E-08 Note: One successful gmin step
Trying gmin =   4.4153E-08 Note: One successful gmin step
Trying gmin =   4.3952E-08 Warning: Further gmin increment
Trying gmin =   4.4102E-08 Note: One successful gmin step
Trying gmin =   4.4027E-08 Note: One successful gmin step
Trying gmin =   4.3914E-08 Warning: Further gmin increment
Trying gmin =   4.3999E-08 Warning: Further gmin increment
Trying gmin =   4.4020E-08 Warning: Further gmin increment
Trying gmin =   4.4025E-08 Warning: Last gmin step failed
Warning: True gmin stepping failed
Note: Starting dynamic gmin stepping
Trying gmin =   1.0000E-03 Note: One successful gmin step
Trying gmin =   1.0000E-04 Note: One successful gmin step
Trying gmin =   1.0000E-05 Warning: Further gmin increment
Trying gmin =   5.6234E-05 Note: One successful gmin step
Trying gmin =   2.3714E-05 Note: One successful gmin step
Trying gmin =   6.4938E-06 Warning: Further gmin increment
Trying gmin =   1.7154E-05 Note: One successful gmin step
Trying gmin =   1.0554E-05 Warning: Further gmin increment
Trying gmin =   1.5193E-05 Note: One successful gmin step
Trying gmin =   1.2663E-05 Note: One successful gmin step
Trying gmin =   9.6358E-06 Warning: Further gmin increment
Trying gmin =   1.1827E-05 Note: One successful gmin step
Trying gmin =   1.0675E-05 Note: One successful gmin step
Trying gmin =   9.1546E-06 Note: One successful gmin step
Trying gmin =   7.2699E-06 Note: One successful gmin step
Trying gmin =   5.1447E-06 Note: One successful gmin step
Trying gmin =   3.0627E-06 Note: One successful gmin step
Trying gmin =   1.8233E-06 Note: One successful gmin step
Trying gmin =   8.3747E-07 Note: One successful gmin step
Trying gmin =   2.6070E-07 Note: One successful gmin step
Trying gmin =   4.5281E-08 Warning: Further gmin increment
Trying gmin =   1.6830E-07 Warning: Further gmin increment
Trying gmin =   2.3369E-07 Note: One successful gmin step
Trying gmin =   1.9832E-07 Warning: Further gmin increment
Trying gmin =   2.2429E-07 Note: One successful gmin step
Trying gmin =   2.1091E-07 Warning: Further gmin increment
Trying gmin =   2.2087E-07 Note: One successful gmin step
Trying gmin =   2.1583E-07 Note: One successful gmin step
Trying gmin =   2.0849E-07 Warning: Further gmin increment
Trying gmin =   2.1397E-07 Warning: Further gmin increment
Trying gmin =   2.1536E-07 Note: One successful gmin step
Trying gmin =   2.1466E-07 Warning: Further gmin increment
Trying gmin =   2.1519E-07 Note: One successful gmin step
Trying gmin =   2.1493E-07 Warning: Further gmin increment
Trying gmin =   2.1512E-07 Note: One successful gmin step
Trying gmin =   2.1502E-07 Note: One successful gmin step
Trying gmin =   2.1488E-07 Warning: Further gmin increment
Trying gmin =   2.1499E-07 Warning: Further gmin increment
Trying gmin =   2.1501E-07 Note: One successful gmin step
Trying gmin =   2.1500E-07 Note: One successful gmin step
Trying gmin =   2.1498E-07 Warning: Further gmin increment
Trying gmin =   2.1500E-07 Warning: Last gmin step failed
Warning: Dynamic gmin stepping failed
Note: Starting source stepping
Supplies reduced to   0.0000% Note: One successful source step
Supplies reduced to   0.1000% Note: One successful source step
Supplies reduced to   0.2000% Note: One successful source step
Supplies reduced to   0.3500% Note: One successful source step
Supplies reduced to   0.5750% Note: One successful source step
Supplies reduced to   0.9125% Note: One successful source step
Supplies reduced to   1.4188% Note: One successful source step
Supplies reduced to   2.1781% Note: One successful source step
Supplies reduced to   3.3172% Note: One successful source step
Supplies reduced to   5.0258% Note: One successful source step
Supplies reduced to   7.5887% Note: One successful source step
Supplies reduced to  11.4330% Note: One successful source step
Supplies reduced to  17.1995% Note: One successful source step
Supplies reduced to  25.8493% Supplies reduced to  17.1995% Note: One successful source step
Supplies reduced to  18.1995% Note: One successful source step
Supplies reduced to  19.6995% Note: One successful source step
Supplies reduced to  21.9495% Note: One successful source step
Supplies reduced to  25.3245% Note: One successful source step
Supplies reduced to  30.3870% Note: One successful source step
Supplies reduced to  35.4495% Note: One successful source step
Supplies reduced to  37.9808% Note: One successful source step
Supplies reduced to  41.7776% Note: One successful source step
Supplies reduced to  47.4729% Note: One successful source step
Supplies reduced to  56.0159% Note: One successful source step
Supplies reduced to  64.5589% Note: One successful source step
Supplies reduced to  77.3733% Supplies reduced to  64.5589% Note: One successful source step
Supplies reduced to  65.5589% Note: One successful source step
Supplies reduced to  67.0589% Note: One successful source step
Supplies reduced to  69.3089% Note: One successful source step
Supplies reduced to  72.6839% Note: One successful source step
Supplies reduced to  77.7464% Supplies reduced to  72.6839% Note: One successful source step
Supplies reduced to  73.4433% Note: One successful source step
Supplies reduced to  74.5823% Note: One successful source step
Supplies reduced to  76.2909% Supplies reduced to  74.5823% Note: One successful source step
Supplies reduced to  74.8386% Note: One successful source step
Supplies reduced to  75.2230% Supplies reduced to  74.8386% Note: One successful source step
Supplies reduced to  74.8963% Note: One successful source step
Supplies reduced to  74.9828% Note: One successful source step
Supplies reduced to  75.1125% Supplies reduced to  74.9828% Note: One successful source step
Supplies reduced to  75.0022% Note: One successful source step
Supplies reduced to  75.0314% Note: One successful source step
Supplies reduced to  75.0752% Note: One successful source step
Supplies reduced to  75.1409% Supplies reduced to  75.0752% Note: One successful source step
Supplies reduced to  75.0851% Note: One successful source step
Supplies reduced to  75.0999% Note: One successful source step
Supplies reduced to  75.1220% Supplies reduced to  75.0999% Note: One successful source step
Supplies reduced to  75.1032% Supplies reduced to  75.0999% Note: One successful source step
Supplies reduced to  75.1004% Note: One successful source step
Supplies reduced to  75.1011% Note: One successful source step
Supplies reduced to  75.1022% Supplies reduced to  75.1011% Note: One successful source step
Supplies reduced to  75.1013% Supplies reduced to  75.1011% Note: One successful source step
Supplies reduced to  75.1011% Note: One successful source step
Supplies reduced to  75.1012% Note: One successful source step
Supplies reduced to  75.1012% Warning: source stepping failed
doAnalyses: Too many iterations without convergence

dc simulation(s) aborted
Error(parse.c--checkvalid): vldo_sup_2_8: zero length vector.
Error: RHS "abs((vldo_sup_2_8-vldo_sup_2)/0.8)" invalid
Error(parse.c--checkvalid): line_reg: zero length vector.
Error(parse.c--checkvalid): vin: zero length vector.
Error: RHS "vin-1.764" invalid
Error(parse.c--checkvalid): dropout: zero length vector.
Error: no such vector dropout
Note: No ".plot", ".print", or ".fourier" lines; no simulations run
pm                  =  8.579436e+01
Doing analysis at TEMP = 0.000000 and TNOM = 27.000000


No. of Data Rows : 91
psrr100             =  -7.436470e+00
psrr100k            =  3.414646e-02
Doing analysis at TEMP = 0.000000 and TNOM = 27.000000


No. of Data Rows : 86
temp_coeff = 8.926811e+01
Doing analysis at TEMP = 0.000000 and TNOM = 27.000000


Error: measure  vldo_sup_2  (AT) : out of interval
 meas dc vldo_sup_2 find ldo_out at=2 failed!


Error: measure  vldo_sup_2_8  (AT) : out of interval
 meas dc vldo_sup_2_8 find ldo_out at=2.8 failed!


Error: measure  vin  (WHEN) : out of interval
 meas dc vin when v(ldo_out)=1.764 failed!

