 Reference value :  0.00000e+00
No compatibility mode selected!


Circuit: * ldo netlist 

Doing analysis at TEMP = 85.000000 and TNOM = 27.000000


No. of Data Rows : 1
bg_out = 1.194432e+00
inn = 1.137351e+00
inp = 1.137335e+00
l1#branch = 0.000000e+00
ldo_out = 1.797075e+00
m.xm1.msky130_fd_pr__nfet_g5v0d10v5#body = 2.962687e-11
m.xm1.msky130_fd_pr__nfet_g5v0d10v5#dbody = 5.580709e-11
m.xm1.msky130_fd_pr__nfet_g5v0d10v5#sbody = 3.307352e-11
m.xm2.msky130_fd_pr__pfet_g5v0d10v5#body = 2.300000e+00
m.xm2.msky130_fd_pr__pfet_g5v0d10v5#dbody = 2.300000e+00
m.xm2.msky130_fd_pr__pfet_g5v0d10v5#sbody = 2.300000e+00
m.xm3.msky130_fd_pr__pfet_g5v0d10v5#body = 2.300000e+00
m.xm3.msky130_fd_pr__pfet_g5v0d10v5#dbody = 2.300000e+00
m.xm3.msky130_fd_pr__pfet_g5v0d10v5#sbody = 2.300000e+00
m.xm4.msky130_fd_pr__pfet_g5v0d10v5#body = 2.300000e+00
m.xm4.msky130_fd_pr__pfet_g5v0d10v5#dbody = 2.300000e+00
m.xm4.msky130_fd_pr__pfet_g5v0d10v5#sbody = 2.300000e+00
m.xm5.msky130_fd_pr__pfet_g5v0d10v5#body = 2.300000e+00
m.xm5.msky130_fd_pr__pfet_g5v0d10v5#dbody = 2.300000e+00
m.xm5.msky130_fd_pr__pfet_g5v0d10v5#sbody = 2.300000e+00
m.xm6.msky130_fd_pr__nfet_g5v0d10v5#body = 1.928652e-11
m.xm6.msky130_fd_pr__nfet_g5v0d10v5#dbody = 4.821618e-11
m.xm6.msky130_fd_pr__nfet_g5v0d10v5#sbody = 9.643371e-12
m.xm7.msky130_fd_pr__pfet_g5v0d10v5#body = 2.300000e+00
m.xm7.msky130_fd_pr__pfet_g5v0d10v5#dbody = 2.300000e+00
m.xm7.msky130_fd_pr__pfet_g5v0d10v5#sbody = 2.300000e+00
m.xm8.msky130_fd_pr__pfet_g5v0d10v5#body = 2.300000e+00
m.xm8.msky130_fd_pr__pfet_g5v0d10v5#dbody = 2.300000e+00
m.xm8.msky130_fd_pr__pfet_g5v0d10v5#sbody = 2.300000e+00
m.xm9.msky130_fd_pr__nfet_g5v0d10v5#body = 2.783282e-11
m.xm9.msky130_fd_pr__nfet_g5v0d10v5#dbody = 5.394073e-11
m.xm9.msky130_fd_pr__nfet_g5v0d10v5#sbody = 2.955773e-11
m.xm10.msky130_fd_pr__nfet_g5v0d10v5#body = 2.766712e-11
m.xm10.msky130_fd_pr__nfet_g5v0d10v5#dbody = 5.352649e-11
m.xm10.msky130_fd_pr__nfet_g5v0d10v5#sbody = 2.947488e-11
m.xm11.msky130_fd_pr__pfet_g5v0d10v5#body = 2.300000e+00
m.xm11.msky130_fd_pr__pfet_g5v0d10v5#dbody = 2.300000e+00
m.xm11.msky130_fd_pr__pfet_g5v0d10v5#sbody = 2.300000e+00
m.xm12.msky130_fd_pr__pfet_g5v0d10v5#body = 2.300000e+00
m.xm12.msky130_fd_pr__pfet_g5v0d10v5#dbody = 2.300000e+00
m.xm12.msky130_fd_pr__pfet_g5v0d10v5#sbody = 2.300000e+00
m.xm13.msky130_fd_pr__nfet_g5v0d10v5#body = 6.172977e-12
m.xm13.msky130_fd_pr__nfet_g5v0d10v5#dbody = 1.543237e-11
m.xm13.msky130_fd_pr__nfet_g5v0d10v5#sbody = 3.086557e-12
m.xm14.msky130_fd_pr__pfet_g5v0d10v5#body = 2.300000e+00
m.xm14.msky130_fd_pr__pfet_g5v0d10v5#dbody = 2.300000e+00
m.xm14.msky130_fd_pr__pfet_g5v0d10v5#sbody = 2.300000e+00
m.xm15.msky130_fd_pr__nfet_g5v0d10v5#body = 1.678435e-14
m.xm15.msky130_fd_pr__nfet_g5v0d10v5#dbody = 4.195954e-14
m.xm15.msky130_fd_pr__nfet_g5v0d10v5#sbody = 8.393494e-15
m.xm16.msky130_fd_pr__nfet_g5v0d10v5#body = 5.346950e-11
m.xm16.msky130_fd_pr__nfet_g5v0d10v5#dbody = 9.473735e-11
m.xm16.msky130_fd_pr__nfet_g5v0d10v5#sbody = 6.567114e-11
m.xm17.msky130_fd_pr__pfet_g5v0d10v5#body = 2.300000e+00
m.xm17.msky130_fd_pr__pfet_g5v0d10v5#dbody = 2.300000e+00
m.xm17.msky130_fd_pr__pfet_g5v0d10v5#sbody = 2.300000e+00
m.xm18.msky130_fd_pr__nfet_g5v0d10v5#body = 1.919735e-11
m.xm18.msky130_fd_pr__nfet_g5v0d10v5#dbody = 4.799229e-11
m.xm18.msky130_fd_pr__nfet_g5v0d10v5#sbody = 9.598752e-12
m.xm19.msky130_fd_pr__nfet_g5v0d10v5#body = 2.964955e-11
m.xm19.msky130_fd_pr__nfet_g5v0d10v5#dbody = 5.586379e-11
m.xm19.msky130_fd_pr__nfet_g5v0d10v5#sbody = 3.308486e-11
m.xm20.msky130_fd_pr__nfet_g5v0d10v5#body = 1.269514e-11
m.xm20.msky130_fd_pr__nfet_g5v0d10v5#dbody = 3.173776e-11
m.xm20.msky130_fd_pr__nfet_g5v0d10v5#sbody = 6.347642e-12
m.xm22.msky130_fd_pr__nfet_g5v0d10v5#body = 1.242535e-11
m.xm22.msky130_fd_pr__nfet_g5v0d10v5#dbody = 3.106326e-11
m.xm22.msky130_fd_pr__nfet_g5v0d10v5#sbody = 6.212783e-12
m.xm24.msky130_fd_pr__pfet_g5v0d10v5#body = 2.300000e+00
m.xm24.msky130_fd_pr__pfet_g5v0d10v5#dbody = 2.300000e+00
m.xm24.msky130_fd_pr__pfet_g5v0d10v5#sbody = 2.300000e+00
m.xm26.msky130_fd_pr__pfet_g5v0d10v5#body = 2.300000e+00
m.xm26.msky130_fd_pr__pfet_g5v0d10v5#dbody = 2.300000e+00
m.xm26.msky130_fd_pr__pfet_g5v0d10v5#sbody = 2.300000e+00
mir = 1.219642e+00
net1 = 6.225834e-01
net2 = 3.245725e-05
net3 = 6.963192e-01
net4 = 3.103361e-01
net5 = 1.221456e+00
net6 = 8.591691e-01
net7 = 6.963027e-01
net8 = 1.299435e+00
net9 = 1.312691e+00
net10 = 3.373816e-01
net11 = 1.379285e+00
net12 = 1.379285e+00
net13 = 0.000000e+00
out = 1.379285e+00
pos = 1.194585e+00
q.xq2.qsky130_fd_pr__pnp_05v5_w0p68l0p68#collcx = 3.026369e-03
q.xq3.qsky130_fd_pr__pnp_05v5_w0p68l0p68#collcx = 3.807680e-04
q.xq4.qsky130_fd_pr__pnp_05v5_w0p68l0p68#collcx = 3.807680e-04
q.xq8.qsky130_fd_pr__pnp_05v5_w0p68l0p68#collcx = 3.807680e-04
q.xq10.qsky130_fd_pr__pnp_05v5_w0p68l0p68#collcx = 3.807680e-04
q.xq12.qsky130_fd_pr__pnp_05v5_w0p68l0p68#collcx = 3.807680e-04
q.xq14.qsky130_fd_pr__pnp_05v5_w0p68l0p68#collcx = 3.807680e-04
q.xq16.qsky130_fd_pr__pnp_05v5_w0p68l0p68#collcx = 3.807680e-04
q.xq18.qsky130_fd_pr__pnp_05v5_w0p68l0p68#collcx = 3.807680e-04
vb = 8.591479e-01
vdd = 2.300000e+00
vs#branch = -1.01219e-02
vt#branch = 0.000000e+00
xc1.a = 0.000000e+00
xc1.b1 = 0.000000e+00
xc3.a = 1.379285e+00
xc3.b1 = 1.379285e+00
xr1.xsky130_fd_pr__res_xhigh_po_0p69.ra = 7.020905e-01
xr2.xsky130_fd_pr__res_xhigh_po_0p69.ra = 7.021070e-01
xr3.xsky130_fd_pr__res_xhigh_po_0p69.ra = 3.431256e-03
xr4.xsky130_fd_pr__res_xhigh_po_0p69.ra = 6.249702e-01
xr5.xsky130_fd_pr__res_xhigh_po_0p69.ra = 3.431171e-03
xr6.xsky130_fd_pr__res_xhigh_po_0p69.ra = 6.127575e-03
xr7.xsky130_fd_pr__res_xhigh_po_0p69.ra = 1.379285e+00
xr8.xsky130_fd_pr__res_xhigh_po_0p69.ra = 1.204773e+00
xr9.xsky130_fd_pr__res_xhigh_po_0p69.ra = 1.068365e-02
Doing analysis at TEMP = 85.000000 and TNOM = 27.000000


No. of Data Rows : 91
Note: Starting true gmin stepping
Trying gmin =   1.0000E-03 Note: One successful gmin step
Trying gmin =   1.0000E-04 Note: One successful gmin step
Trying gmin =   1.0000E-05 Note: One successful gmin step
Trying gmin =   1.0000E-06 Note: One successful gmin step
Trying gmin =   1.0000E-07 Note: One successful gmin step
Trying gmin =   1.0000E-08 Warning: Further gmin increment
Trying gmin =   5.6234E-08 Note: One successful gmin step
Trying gmin =   2.3714E-08 Warning: Further gmin increment
Trying gmin =   4.5316E-08 Warning: Further gmin increment
Trying gmin =   5.3280E-08 Warning: Further gmin increment
Trying gmin =   5.5481E-08 Warning: Further gmin increment
Trying gmin =   5.6045E-08 Warning: Further gmin increment
Trying gmin =   5.6187E-08 Note: One successful gmin step
Trying gmin =   5.6116E-08 Warning: Further gmin increment
Trying gmin =   5.6169E-08 Note: One successful gmin step
Trying gmin =   5.6142E-08 Note: One successful gmin step
Trying gmin =   5.6102E-08 Warning: Further gmin increment
Trying gmin =   5.6132E-08 Warning: Further gmin increment
Trying gmin =   5.6140E-08 Note: One successful gmin step
Trying gmin =   5.6136E-08 Note: One successful gmin step
Trying gmin =   5.6130E-08 Warning: Further gmin increment
Trying gmin =   5.6135E-08 Note: One successful gmin step
Trying gmin =   5.6133E-08 Warning: Last gmin step failed
Error: -7.67446e+159, 2 out of range for ^
Warning: True gmin stepping failed
Note: Starting dynamic gmin stepping
Trying gmin =   1.0000E-03 Note: One successful gmin step
Trying gmin =   1.0000E-04 Note: One successful gmin step
Trying gmin =   1.0000E-05 Warning: Further gmin increment
Trying gmin =   5.6234E-05 Note: One successful gmin step
Trying gmin =   2.3714E-05 Note: One successful gmin step
Trying gmin =   6.4938E-06 Warning: Further gmin increment
Trying gmin =   1.7154E-05 Note: One successful gmin step
Trying gmin =   1.0554E-05 Warning: Further gmin increment
Trying gmin =   1.5193E-05 Note: One successful gmin step
Trying gmin =   1.2663E-05 Warning: Further gmin increment
Trying gmin =   1.4517E-05 Note: One successful gmin step
Trying gmin =   1.3558E-05 Note: One successful gmin step
Trying gmin =   1.2238E-05 Note: One successful gmin step
Trying gmin =   1.0495E-05 Note: One successful gmin step
Trying gmin =   8.3340E-06 Note: One successful gmin step
Trying gmin =   5.8977E-06 Note: One successful gmin step
Trying gmin =   3.5110E-06 Note: One successful gmin step
Trying gmin =   1.6127E-06 Note: One successful gmin step
Trying gmin =   5.0203E-07 Note: One successful gmin step
Trying gmin =   8.7195E-08 Warning: Further gmin increment
Trying gmin =   3.2409E-07 Note: One successful gmin step
Trying gmin =   1.6811E-07 Warning: Further gmin increment
Trying gmin =   2.7504E-07 Note: One successful gmin step
Trying gmin =   2.1502E-07 Warning: Further gmin increment
Trying gmin =   2.5862E-07 Note: One successful gmin step
Trying gmin =   2.3582E-07 Warning: Further gmin increment
Trying gmin =   2.5272E-07 Warning: Further gmin increment
Trying gmin =   2.5714E-07 Warning: Further gmin increment
Trying gmin =   2.5825E-07 Note: One successful gmin step
Trying gmin =   2.5769E-07 Warning: Further gmin increment
Trying gmin =   2.5811E-07 Warning: Further gmin increment
Trying gmin =   2.5822E-07 Note: One successful gmin step
Trying gmin =   2.5816E-07 Warning: Further gmin increment
Trying gmin =   2.5820E-07 Note: One successful gmin step
Trying gmin =   2.5818E-07 Warning: Further gmin increment
Trying gmin =   2.5820E-07 Note: One successful gmin step
Trying gmin =   2.5819E-07 Warning: Last gmin step failed
Note: Dynamic gmin stepping completed
 Reference value :  2.80000e+00Note: Starting true gmin stepping
Trying gmin =   1.0000E-03 Note: One successful gmin step
Trying gmin =   1.0000E-04 Note: One successful gmin step
Trying gmin =   1.0000E-05 Note: One successful gmin step
Trying gmin =   1.0000E-06 Note: One successful gmin step
Trying gmin =   1.0000E-07 Note: One successful gmin step
Trying gmin =   1.0000E-08 Warning: Further gmin increment
Trying gmin =   5.6234E-08 Note: One successful gmin step
Trying gmin =   2.3714E-08 Note: One successful gmin step
Trying gmin =   6.4938E-09 Warning: Further gmin increment
Trying gmin =   1.7154E-08 Note: One successful gmin step
Trying gmin =   1.0554E-08 Note: One successful gmin step
Trying gmin =   5.0937E-09 Note: One successful gmin step
Trying gmin =   1.7077E-09 Note: One successful gmin step
Trying gmin =   3.3152E-10 Note: One successful gmin step
Trying gmin =   3.3152E-11 Note: One successful gmin step
Trying gmin =   3.3152E-12 Note: One successful gmin step
Trying gmin =   1.0000E-12 Note: One successful gmin step
Note: True gmin stepping completed
 Reference value :  1.10000e+00Note: Starting true gmin stepping
Trying gmin =   1.0000E-03 Note: One successful gmin step
Trying gmin =   1.0000E-04 Note: One successful gmin step
Trying gmin =   1.0000E-05 Note: One successful gmin step
Trying gmin =   1.0000E-06 Note: One successful gmin step
Trying gmin =   1.0000E-07 Note: One successful gmin step
Trying gmin =   1.0000E-08 Note: One successful gmin step
Trying gmin =   3.1623E-09 Warning: Further gmin increment
Trying gmin =   7.4989E-09 Note: One successful gmin step
Trying gmin =   4.8697E-09 Note: One successful gmin step
Trying gmin =   2.5483E-09 Note: One successful gmin step
Trying gmin =   9.6466E-10 Note: One successful gmin step
Trying gmin =   2.2468E-10 Note: One successful gmin step
Trying gmin =   2.5255E-11 Note: One successful gmin step
Trying gmin =   2.5255E-12 Note: One successful gmin step
Trying gmin =   1.0000E-12 Note: One successful gmin step
Note: True gmin stepping completed
pm                  =  -8.362942e+01
Doing analysis at TEMP = 85.000000 and TNOM = 27.000000


No. of Data Rows : 91
psrr100             =  -5.128062e+01
psrr100k            =  -2.580884e+01
Doing analysis at TEMP = 85.000000 and TNOM = 27.000000


No. of Data Rows : 86
temp_coeff = 1.085054e+02
Doing analysis at TEMP = 85.000000 and TNOM = 27.000000


No. of Data Rows : 141
vldo_sup_2          =  1.984711e+00
vldo_sup_2_8        =  2.785311e+00
line_reg = 1.000750e+00
Note: No ".plot", ".print", or ".fourier" lines; no simulations run
vin                 =  1.779971e+00
dropout = 1.597100e-02
