 Reference value :  0.00000e+00
No compatibility mode selected!


Circuit: * ldo netlist 

Doing analysis at TEMP = 27.000000 and TNOM = 27.000000


No. of Data Rows : 1
bg_out = 1.194136e+00
inn = 1.224908e+00
inp = 1.224887e+00
l1#branch = 0.000000e+00
ldo_out = 1.796223e+00
m.xm1.msky130_fd_pr__nfet_g5v0d10v5#body = 1.657925e-11
m.xm1.msky130_fd_pr__nfet_g5v0d10v5#dbody = 3.293390e-11
m.xm1.msky130_fd_pr__nfet_g5v0d10v5#sbody = 1.680386e-11
m.xm2.msky130_fd_pr__pfet_g5v0d10v5#body = 2.300000e+00
m.xm2.msky130_fd_pr__pfet_g5v0d10v5#dbody = 2.300000e+00
m.xm2.msky130_fd_pr__pfet_g5v0d10v5#sbody = 2.300000e+00
m.xm3.msky130_fd_pr__pfet_g5v0d10v5#body = 2.300000e+00
m.xm3.msky130_fd_pr__pfet_g5v0d10v5#dbody = 2.300000e+00
m.xm3.msky130_fd_pr__pfet_g5v0d10v5#sbody = 2.300000e+00
m.xm4.msky130_fd_pr__pfet_g5v0d10v5#body = 2.300000e+00
m.xm4.msky130_fd_pr__pfet_g5v0d10v5#dbody = 2.300000e+00
m.xm4.msky130_fd_pr__pfet_g5v0d10v5#sbody = 2.300000e+00
m.xm5.msky130_fd_pr__pfet_g5v0d10v5#body = 2.300000e+00
m.xm5.msky130_fd_pr__pfet_g5v0d10v5#dbody = 2.300000e+00
m.xm5.msky130_fd_pr__pfet_g5v0d10v5#sbody = 2.300000e+00
m.xm6.msky130_fd_pr__nfet_g5v0d10v5#body = 1.111768e-11
m.xm6.msky130_fd_pr__nfet_g5v0d10v5#dbody = 2.779419e-11
m.xm6.msky130_fd_pr__nfet_g5v0d10v5#sbody = 5.558844e-12
m.xm7.msky130_fd_pr__pfet_g5v0d10v5#body = 2.300000e+00
m.xm7.msky130_fd_pr__pfet_g5v0d10v5#dbody = 2.300000e+00
m.xm7.msky130_fd_pr__pfet_g5v0d10v5#sbody = 2.300000e+00
m.xm8.msky130_fd_pr__pfet_g5v0d10v5#body = 2.300000e+00
m.xm8.msky130_fd_pr__pfet_g5v0d10v5#dbody = 2.300000e+00
m.xm8.msky130_fd_pr__pfet_g5v0d10v5#sbody = 2.300000e+00
m.xm9.msky130_fd_pr__nfet_g5v0d10v5#body = 1.725555e-11
m.xm9.msky130_fd_pr__nfet_g5v0d10v5#dbody = 3.550143e-11
m.xm9.msky130_fd_pr__nfet_g5v0d10v5#sbody = 1.626521e-11
m.xm10.msky130_fd_pr__nfet_g5v0d10v5#body = 1.710632e-11
m.xm10.msky130_fd_pr__nfet_g5v0d10v5#dbody = 3.512836e-11
m.xm10.msky130_fd_pr__nfet_g5v0d10v5#sbody = 1.619059e-11
m.xm11.msky130_fd_pr__pfet_g5v0d10v5#body = 2.300000e+00
m.xm11.msky130_fd_pr__pfet_g5v0d10v5#dbody = 2.300000e+00
m.xm11.msky130_fd_pr__pfet_g5v0d10v5#sbody = 2.300000e+00
m.xm12.msky130_fd_pr__pfet_g5v0d10v5#body = 2.300000e+00
m.xm12.msky130_fd_pr__pfet_g5v0d10v5#dbody = 2.300000e+00
m.xm12.msky130_fd_pr__pfet_g5v0d10v5#sbody = 2.300000e+00
m.xm13.msky130_fd_pr__nfet_g5v0d10v5#body = 3.817359e-12
m.xm13.msky130_fd_pr__nfet_g5v0d10v5#dbody = 9.543385e-12
m.xm13.msky130_fd_pr__nfet_g5v0d10v5#sbody = 1.908690e-12
m.xm14.msky130_fd_pr__pfet_g5v0d10v5#body = 2.300000e+00
m.xm14.msky130_fd_pr__pfet_g5v0d10v5#dbody = 2.300000e+00
m.xm14.msky130_fd_pr__pfet_g5v0d10v5#sbody = 2.300000e+00
m.xm15.msky130_fd_pr__nfet_g5v0d10v5#body = 4.424374e-17
m.xm15.msky130_fd_pr__nfet_g5v0d10v5#dbody = 1.106051e-16
m.xm15.msky130_fd_pr__nfet_g5v0d10v5#sbody = 2.212612e-17
m.xm16.msky130_fd_pr__nfet_g5v0d10v5#body = 4.406999e-11
m.xm16.msky130_fd_pr__nfet_g5v0d10v5#dbody = 7.954362e-11
m.xm16.msky130_fd_pr__nfet_g5v0d10v5#sbody = 5.266633e-11
m.xm17.msky130_fd_pr__pfet_g5v0d10v5#body = 2.300000e+00
m.xm17.msky130_fd_pr__pfet_g5v0d10v5#dbody = 2.300000e+00
m.xm17.msky130_fd_pr__pfet_g5v0d10v5#sbody = 2.300000e+00
m.xm18.msky130_fd_pr__nfet_g5v0d10v5#body = 1.373965e-11
m.xm18.msky130_fd_pr__nfet_g5v0d10v5#dbody = 3.434910e-11
m.xm18.msky130_fd_pr__nfet_g5v0d10v5#sbody = 6.869836e-12
m.xm19.msky130_fd_pr__nfet_g5v0d10v5#body = 1.660866e-11
m.xm19.msky130_fd_pr__nfet_g5v0d10v5#dbody = 3.300741e-11
m.xm19.msky130_fd_pr__nfet_g5v0d10v5#sbody = 1.681856e-11
m.xm20.msky130_fd_pr__nfet_g5v0d10v5#body = 1.103403e-11
m.xm20.msky130_fd_pr__nfet_g5v0d10v5#dbody = 2.758505e-11
m.xm20.msky130_fd_pr__nfet_g5v0d10v5#sbody = 5.517026e-12
m.xm22.msky130_fd_pr__nfet_g5v0d10v5#body = 4.259829e-12
m.xm22.msky130_fd_pr__nfet_g5v0d10v5#dbody = 1.064957e-11
m.xm22.msky130_fd_pr__nfet_g5v0d10v5#sbody = 2.129919e-12
m.xm24.msky130_fd_pr__pfet_g5v0d10v5#body = 2.300000e+00
m.xm24.msky130_fd_pr__pfet_g5v0d10v5#dbody = 2.300000e+00
m.xm24.msky130_fd_pr__pfet_g5v0d10v5#sbody = 2.300000e+00
m.xm26.msky130_fd_pr__pfet_g5v0d10v5#body = 2.300000e+00
m.xm26.msky130_fd_pr__pfet_g5v0d10v5#dbody = 2.300000e+00
m.xm26.msky130_fd_pr__pfet_g5v0d10v5#sbody = 2.300000e+00
mir = 9.854258e-01
net1 = 7.262777e-01
net2 = 3.404483e-06
net3 = 7.859793e-01
net4 = 3.402240e-01
net5 = 9.877780e-01
net6 = 8.888518e-01
net7 = 7.859569e-01
net8 = 1.062771e+00
net9 = 1.074710e+00
net10 = 3.052605e-01
net11 = 1.099043e+00
net12 = 1.099043e+00
net13 = 0.000000e+00
out = 1.099043e+00
pos = 1.194262e+00
q.xq2.qsky130_fd_pr__pnp_05v5_w0p68l0p68#collcx = 2.182201e-03
q.xq3.qsky130_fd_pr__pnp_05v5_w0p68l0p68#collcx = 2.748931e-04
q.xq4.qsky130_fd_pr__pnp_05v5_w0p68l0p68#collcx = 2.748931e-04
q.xq8.qsky130_fd_pr__pnp_05v5_w0p68l0p68#collcx = 2.748931e-04
q.xq10.qsky130_fd_pr__pnp_05v5_w0p68l0p68#collcx = 2.748931e-04
q.xq12.qsky130_fd_pr__pnp_05v5_w0p68l0p68#collcx = 2.748931e-04
q.xq14.qsky130_fd_pr__pnp_05v5_w0p68l0p68#collcx = 2.748931e-04
q.xq16.qsky130_fd_pr__pnp_05v5_w0p68l0p68#collcx = 2.748931e-04
q.xq18.qsky130_fd_pr__pnp_05v5_w0p68l0p68#collcx = 2.748931e-04
vb = 8.825939e-01
vdd = 2.300000e+00
vs#branch = -1.01057e-02
vt#branch = 0.000000e+00
xc1.a = 0.000000e+00
xc1.b1 = 0.000000e+00
xc3.a = 1.099043e+00
xc3.b1 = 1.099043e+00
xr1.xsky130_fd_pr__res_xhigh_po_0p69.ra = 7.912829e-01
xr2.xsky130_fd_pr__res_xhigh_po_0p69.ra = 7.913052e-01
xr3.xsky130_fd_pr__res_xhigh_po_0p69.ra = 3.606159e-03
xr4.xsky130_fd_pr__res_xhigh_po_0p69.ra = 7.280671e-01
xr5.xsky130_fd_pr__res_xhigh_po_0p69.ra = 3.606050e-03
xr6.xsky130_fd_pr__res_xhigh_po_0p69.ra = 5.661457e-03
xr7.xsky130_fd_pr__res_xhigh_po_0p69.ra = 1.099043e+00
xr8.xsky130_fd_pr__res_xhigh_po_0p69.ra = 1.203677e+00
xr9.xsky130_fd_pr__res_xhigh_po_0p69.ra = 9.873585e-03
Doing analysis at TEMP = 27.000000 and TNOM = 27.000000


No. of Data Rows : 91
Note: Starting true gmin stepping
Trying gmin =   1.0000E-03 Note: One successful gmin step
Trying gmin =   1.0000E-04 Note: One successful gmin step
Trying gmin =   1.0000E-05 Note: One successful gmin step
Trying gmin =   1.0000E-06 Note: One successful gmin step
Trying gmin =   1.0000E-07 Note: One successful gmin step
Trying gmin =   1.0000E-08 Warning: Further gmin increment
Trying gmin =   5.6234E-08 Note: One successful gmin step
Trying gmin =   2.3714E-08 Warning: Further gmin increment
Trying gmin =   4.5316E-08 Warning: Further gmin increment
Trying gmin =   5.3280E-08 Note: One successful gmin step
Trying gmin =   4.9137E-08 Note: One successful gmin step
Trying gmin =   4.3518E-08 Warning: Further gmin increment
Trying gmin =   4.7668E-08 Note: One successful gmin step
Trying gmin =   4.5546E-08 Note: One successful gmin step
Trying gmin =   4.2539E-08 Note: One successful gmin step
Trying gmin =   3.8396E-08 Note: One successful gmin step
Trying gmin =   3.2927E-08 Note: One successful gmin step
Trying gmin =   2.6148E-08 Note: One successful gmin step
Trying gmin =   1.8504E-08 Note: One successful gmin step
Trying gmin =   1.1016E-08 Note: One successful gmin step
Trying gmin =   5.0598E-09 Note: One successful gmin step
Trying gmin =   1.5751E-09 Note: One successful gmin step
Trying gmin =   2.7357E-10 Note: One successful gmin step
Trying gmin =   2.7357E-11 Note: One successful gmin step
Trying gmin =   2.7357E-12 Note: One successful gmin step
Trying gmin =   1.0000E-12 Note: One successful gmin step
Note: True gmin stepping completed
 Reference value :  1.54000e+00Note: Starting true gmin stepping
Trying gmin =   1.0000E-03 Note: One successful gmin step
Trying gmin =   1.0000E-04 Note: One successful gmin step
Trying gmin =   1.0000E-05 Note: One successful gmin step
Trying gmin =   1.0000E-06 Note: One successful gmin step
Trying gmin =   1.0000E-07 Warning: Further gmin increment
Trying gmin =   5.6234E-07 Note: One successful gmin step
Trying gmin =   2.3714E-07 Note: One successful gmin step
Trying gmin =   6.4938E-08 Note: One successful gmin step
Trying gmin =   9.3057E-09 Warning: Further gmin increment
Trying gmin =   3.9954E-08 Warning: Further gmin increment
Trying gmin =   5.7513E-08 Note: One successful gmin step
Trying gmin =   4.7936E-08 Note: One successful gmin step
Trying gmin =   3.6476E-08 Warning: Further gmin increment
Trying gmin =   4.4771E-08 Note: One successful gmin step
Trying gmin =   4.0412E-08 Note: One successful gmin step
Trying gmin =   3.4655E-08 Note: One successful gmin step
Trying gmin =   2.7520E-08 Note: One successful gmin step
Trying gmin =   1.9475E-08 Note: One successful gmin step
Trying gmin =   1.1594E-08 Note: One successful gmin step
Trying gmin =   5.3253E-09 Note: One successful gmin step
Trying gmin =   1.6578E-09 Note: One successful gmin step
Trying gmin =   2.8793E-10 Note: One successful gmin step
Trying gmin =   2.8793E-11 Note: One successful gmin step
Trying gmin =   2.8793E-12 Note: One successful gmin step
Trying gmin =   1.0000E-12 Note: One successful gmin step
Note: True gmin stepping completed
 Reference value :  7.20000e-01pm                  =  -9.400388e+01
Doing analysis at TEMP = 27.000000 and TNOM = 27.000000


No. of Data Rows : 91
psrr100             =  -8.052792e+01
psrr100k            =  -2.681544e+01
Doing analysis at TEMP = 27.000000 and TNOM = 27.000000


No. of Data Rows : 86
temp_coeff = 1.360234e+02
Doing analysis at TEMP = 27.000000 and TNOM = 27.000000


No. of Data Rows : 141
vldo_sup_2          =  1.796019e+00
vldo_sup_2_8        =  1.796221e+00
line_reg = 2.525000e-04
Note: No ".plot", ".print", or ".fourier" lines; no simulations run
vin                 =  1.786373e+00
dropout = 2.237300e-02
