 Reference value :  0.00000e+00
No compatibility mode selected!


Circuit: * ldo netlist 

Doing analysis at TEMP = 85.000000 and TNOM = 27.000000


No. of Data Rows : 1
bg_out = 1.090893e+00
inn = 1.049570e+00
inp = 1.049533e+00
l1#branch = 0.000000e+00
ldo_out = 1.792985e+00
m.xm1.msky130_fd_pr__nfet_g5v0d10v5#body = 2.886069e-11
m.xm1.msky130_fd_pr__nfet_g5v0d10v5#dbody = 5.549134e-11
m.xm1.msky130_fd_pr__nfet_g5v0d10v5#sbody = 3.109074e-11
m.xm2.msky130_fd_pr__pfet_g5v0d10v5#body = 2.300000e+00
m.xm2.msky130_fd_pr__pfet_g5v0d10v5#dbody = 2.300000e+00
m.xm2.msky130_fd_pr__pfet_g5v0d10v5#sbody = 2.300000e+00
m.xm3.msky130_fd_pr__pfet_g5v0d10v5#body = 2.300000e+00
m.xm3.msky130_fd_pr__pfet_g5v0d10v5#dbody = 2.300000e+00
m.xm3.msky130_fd_pr__pfet_g5v0d10v5#sbody = 2.300000e+00
m.xm4.msky130_fd_pr__pfet_g5v0d10v5#body = 2.300000e+00
m.xm4.msky130_fd_pr__pfet_g5v0d10v5#dbody = 2.300000e+00
m.xm4.msky130_fd_pr__pfet_g5v0d10v5#sbody = 2.300000e+00
m.xm5.msky130_fd_pr__pfet_g5v0d10v5#body = 2.300000e+00
m.xm5.msky130_fd_pr__pfet_g5v0d10v5#dbody = 2.300000e+00
m.xm5.msky130_fd_pr__pfet_g5v0d10v5#sbody = 2.300000e+00
m.xm6.msky130_fd_pr__nfet_g5v0d10v5#body = 1.926134e-11
m.xm6.msky130_fd_pr__nfet_g5v0d10v5#dbody = 4.815324e-11
m.xm6.msky130_fd_pr__nfet_g5v0d10v5#sbody = 9.630780e-12
m.xm7.msky130_fd_pr__pfet_g5v0d10v5#body = 2.300000e+00
m.xm7.msky130_fd_pr__pfet_g5v0d10v5#dbody = 2.300000e+00
m.xm7.msky130_fd_pr__pfet_g5v0d10v5#sbody = 2.300000e+00
m.xm8.msky130_fd_pr__pfet_g5v0d10v5#body = 2.300000e+00
m.xm8.msky130_fd_pr__pfet_g5v0d10v5#dbody = 2.300000e+00
m.xm8.msky130_fd_pr__pfet_g5v0d10v5#sbody = 2.300000e+00
m.xm9.msky130_fd_pr__nfet_g5v0d10v5#body = 2.695533e-11
m.xm9.msky130_fd_pr__nfet_g5v0d10v5#dbody = 5.362668e-11
m.xm9.msky130_fd_pr__nfet_g5v0d10v5#sbody = 2.723930e-11
m.xm10.msky130_fd_pr__nfet_g5v0d10v5#body = 2.675214e-11
m.xm10.msky130_fd_pr__nfet_g5v0d10v5#dbody = 5.311872e-11
m.xm10.msky130_fd_pr__nfet_g5v0d10v5#sbody = 2.713771e-11
m.xm11.msky130_fd_pr__pfet_g5v0d10v5#body = 2.300000e+00
m.xm11.msky130_fd_pr__pfet_g5v0d10v5#dbody = 2.300000e+00
m.xm11.msky130_fd_pr__pfet_g5v0d10v5#sbody = 2.300000e+00
m.xm12.msky130_fd_pr__pfet_g5v0d10v5#body = 2.300000e+00
m.xm12.msky130_fd_pr__pfet_g5v0d10v5#dbody = 2.300000e+00
m.xm12.msky130_fd_pr__pfet_g5v0d10v5#sbody = 2.300000e+00
m.xm13.msky130_fd_pr__nfet_g5v0d10v5#body = 5.233687e-12
m.xm13.msky130_fd_pr__nfet_g5v0d10v5#dbody = 1.308415e-11
m.xm13.msky130_fd_pr__nfet_g5v0d10v5#sbody = 2.616908e-12
m.xm14.msky130_fd_pr__pfet_g5v0d10v5#body = 2.300000e+00
m.xm14.msky130_fd_pr__pfet_g5v0d10v5#dbody = 2.300000e+00
m.xm14.msky130_fd_pr__pfet_g5v0d10v5#sbody = 2.300000e+00
m.xm15.msky130_fd_pr__nfet_g5v0d10v5#body = 3.411644e-14
m.xm15.msky130_fd_pr__nfet_g5v0d10v5#dbody = 8.528895e-14
m.xm15.msky130_fd_pr__nfet_g5v0d10v5#sbody = 1.706038e-14
m.xm16.msky130_fd_pr__nfet_g5v0d10v5#body = 5.237223e-11
m.xm16.msky130_fd_pr__nfet_g5v0d10v5#dbody = 9.418872e-11
m.xm16.msky130_fd_pr__nfet_g5v0d10v5#sbody = 6.292796e-11
m.xm17.msky130_fd_pr__pfet_g5v0d10v5#body = 2.300000e+00
m.xm17.msky130_fd_pr__pfet_g5v0d10v5#dbody = 2.300000e+00
m.xm17.msky130_fd_pr__pfet_g5v0d10v5#sbody = 2.300000e+00
m.xm18.msky130_fd_pr__nfet_g5v0d10v5#body = 1.920267e-11
m.xm18.msky130_fd_pr__nfet_g5v0d10v5#dbody = 4.800557e-11
m.xm18.msky130_fd_pr__nfet_g5v0d10v5#sbody = 9.601410e-12
m.xm19.msky130_fd_pr__nfet_g5v0d10v5#body = 2.891497e-11
m.xm19.msky130_fd_pr__nfet_g5v0d10v5#dbody = 5.562704e-11
m.xm19.msky130_fd_pr__nfet_g5v0d10v5#sbody = 3.111788e-11
m.xm20.msky130_fd_pr__nfet_g5v0d10v5#body = 1.266959e-11
m.xm20.msky130_fd_pr__nfet_g5v0d10v5#dbody = 3.167390e-11
m.xm20.msky130_fd_pr__nfet_g5v0d10v5#sbody = 6.334867e-12
m.xm22.msky130_fd_pr__nfet_g5v0d10v5#body = 1.162381e-11
m.xm22.msky130_fd_pr__nfet_g5v0d10v5#dbody = 2.905942e-11
m.xm22.msky130_fd_pr__nfet_g5v0d10v5#sbody = 5.812010e-12
m.xm24.msky130_fd_pr__pfet_g5v0d10v5#body = 2.300000e+00
m.xm24.msky130_fd_pr__pfet_g5v0d10v5#dbody = 2.300000e+00
m.xm24.msky130_fd_pr__pfet_g5v0d10v5#sbody = 2.300000e+00
m.xm26.msky130_fd_pr__pfet_g5v0d10v5#body = 2.300000e+00
m.xm26.msky130_fd_pr__pfet_g5v0d10v5#dbody = 2.300000e+00
m.xm26.msky130_fd_pr__pfet_g5v0d10v5#sbody = 2.300000e+00
mir = 1.222336e+00
net1 = 6.211198e-01
net2 = 6.600621e-05
net3 = 6.945667e-01
net4 = 2.465642e-01
net5 = 1.226678e+00
net6 = 8.571549e-01
net7 = 6.945292e-01
net8 = 1.301424e+00
net9 = 1.317678e+00
net10 = 2.622910e-01
net11 = 1.379709e+00
net12 = 1.379709e+00
net13 = 0.000000e+00
out = 1.379709e+00
pos = 1.091074e+00
q.xq2.qsky130_fd_pr__pnp_05v5_w0p68l0p68#collcx = 2.896074e-03
q.xq3.qsky130_fd_pr__pnp_05v5_w0p68l0p68#collcx = 3.642800e-04
q.xq4.qsky130_fd_pr__pnp_05v5_w0p68l0p68#collcx = 3.642800e-04
q.xq8.qsky130_fd_pr__pnp_05v5_w0p68l0p68#collcx = 3.642800e-04
q.xq10.qsky130_fd_pr__pnp_05v5_w0p68l0p68#collcx = 3.642800e-04
q.xq12.qsky130_fd_pr__pnp_05v5_w0p68l0p68#collcx = 3.642800e-04
q.xq14.qsky130_fd_pr__pnp_05v5_w0p68l0p68#collcx = 3.642800e-04
q.xq16.qsky130_fd_pr__pnp_05v5_w0p68l0p68#collcx = 3.642800e-04
q.xq18.qsky130_fd_pr__pnp_05v5_w0p68l0p68#collcx = 3.642800e-04
vb = 8.571041e-01
vdd = 2.300000e+00
vs#branch = -1.00940e-02
vt#branch = 0.000000e+00
xc1.a = 0.000000e+00
xc1.b1 = 0.000000e+00
xc3.a = 1.379709e+00
xc3.b1 = 1.379709e+00
xr1.xsky130_fd_pr__res_xhigh_po_0p69.ra = 7.029091e-01
xr2.xsky130_fd_pr__res_xhigh_po_0p69.ra = 7.029467e-01
xr3.xsky130_fd_pr__res_xhigh_po_0p69.ra = 5.097616e-03
xr4.xsky130_fd_pr__res_xhigh_po_0p69.ra = 6.244954e-01
xr5.xsky130_fd_pr__res_xhigh_po_0p69.ra = 5.097325e-03
xr6.xsky130_fd_pr__res_xhigh_po_0p69.ra = 8.857775e-03
xr7.xsky130_fd_pr__res_xhigh_po_0p69.ra = 1.379709e+00
xr8.xsky130_fd_pr__res_xhigh_po_0p69.ra = 1.104536e+00
xr9.xsky130_fd_pr__res_xhigh_po_0p69.ra = 1.389492e-02
Doing analysis at TEMP = 85.000000 and TNOM = 27.000000


No. of Data Rows : 91
Error: no such vector PM
Note: Starting true gmin stepping
Trying gmin =   1.0000E-03 Note: One successful gmin step
Trying gmin =   1.0000E-04 Note: One successful gmin step
Trying gmin =   1.0000E-05 Note: One successful gmin step
Trying gmin =   1.0000E-06 Note: One successful gmin step
Trying gmin =   1.0000E-07 Note: One successful gmin step
Trying gmin =   1.0000E-08 Warning: Further gmin increment
Trying gmin =   5.6234E-08 Warning: Further gmin increment
Trying gmin =   8.6596E-08 Warning: Further gmin increment
Trying gmin =   9.6466E-08 Note: One successful gmin step
Trying gmin =   9.1398E-08 Warning: Further gmin increment
Trying gmin =   9.5173E-08 Warning: Further gmin increment
Trying gmin =   9.6141E-08 Note: One successful gmin step
Trying gmin =   9.5656E-08 Warning: Further gmin increment
Trying gmin =   9.6020E-08 Note: One successful gmin step
Trying gmin =   9.5838E-08 Warning: Further gmin increment
Trying gmin =   9.5974E-08 Note: One successful gmin step
Trying gmin =   9.5906E-08 Warning: Further gmin increment
Trying gmin =   9.5957E-08 Note: One successful gmin step
Trying gmin =   9.5932E-08 Warning: Further gmin increment
Trying gmin =   9.5951E-08 Warning: Further gmin increment
Trying gmin =   9.5956E-08 Warning: Last gmin step failed
Warning: True gmin stepping failed
Note: Starting dynamic gmin stepping
Trying gmin =   1.0000E-03 Note: One successful gmin step
Trying gmin =   1.0000E-04 Note: One successful gmin step
Trying gmin =   1.0000E-05 Note: One successful gmin step
Trying gmin =   1.0000E-06 Note: One successful gmin step
Trying gmin =   1.0000E-07 Note: One successful gmin step
Trying gmin =   3.1623E-08 Note: One successful gmin step
Trying gmin =   5.6234E-09 Note: One successful gmin step
Trying gmin =   5.6234E-10 Note: One successful gmin step
Trying gmin =   5.6234E-11 Note: One successful gmin step
Trying gmin =   5.6234E-12 Note: One successful gmin step
Trying gmin =   1.0000E-12 Warning: Further gmin increment
Trying gmin =   3.6517E-12 Warning: Further gmin increment
Trying gmin =   5.0481E-12 Warning: Further gmin increment
Trying gmin =   5.4737E-12 Warning: Further gmin increment
Trying gmin =   5.5856E-12 Warning: Further gmin increment
Trying gmin =   5.6139E-12 Warning: Further gmin increment
Trying gmin =   5.6210E-12 Warning: Further gmin increment
Trying gmin =   5.6228E-12 Note: One successful gmin step
Trying gmin =   5.6219E-12 Note: One successful gmin step
Trying gmin =   5.6206E-12 Warning: Further gmin increment
Trying gmin =   5.6216E-12 Note: One successful gmin step
Trying gmin =   5.6211E-12 Note: One successful gmin step
Trying gmin =   5.6203E-12 Note: One successful gmin step
Trying gmin =   5.6192E-12 Note: One successful gmin step
Trying gmin =   5.6175E-12 Note: One successful gmin step
Trying gmin =   5.6150E-12 Note: One successful gmin step
Trying gmin =   5.6112E-12 Note: One successful gmin step
Trying gmin =   5.6055E-12 Note: One successful gmin step
Trying gmin =   5.5970E-12 Warning: Further gmin increment
Trying gmin =   5.6034E-12 Note: One successful gmin step
Trying gmin =   5.6002E-12 Note: One successful gmin step
Trying gmin =   5.5954E-12 Warning: Further gmin increment
Trying gmin =   5.5990E-12 Note: One successful gmin step
Trying gmin =   5.5972E-12 Note: One successful gmin step
Trying gmin =   5.5945E-12 Note: One successful gmin step
Trying gmin =   5.5905E-12 Note: One successful gmin step
Trying gmin =   5.5845E-12 Warning: Further gmin increment
Trying gmin =   5.5890E-12 Note: One successful gmin step
Trying gmin =   5.5867E-12 Note: One successful gmin step
Trying gmin =   5.5833E-12 Note: One successful gmin step
Trying gmin =   5.5782E-12 Note: One successful gmin step
Trying gmin =   5.5706E-12 Warning: Further gmin increment
Trying gmin =   5.5763E-12 Note: One successful gmin step
Trying gmin =   5.5735E-12 Note: One successful gmin step
Trying gmin =   5.5692E-12 Warning: Further gmin increment
Trying gmin =   5.5724E-12 Warning: Further gmin increment
Trying gmin =   5.5732E-12 Warning: Last gmin step failed
Error: -8.53266e+158, 2 out of range for ^
Warning: Dynamic gmin stepping failed
Note: Starting source stepping
Supplies reduced to   0.0000% Note: One successful source step
Supplies reduced to   0.1000% Note: One successful source step
Supplies reduced to   0.2000% Note: One successful source step
Supplies reduced to   0.3500% Note: One successful source step
Supplies reduced to   0.5750% Note: One successful source step
Supplies reduced to   0.9125% Note: One successful source step
Supplies reduced to   1.4188% Note: One successful source step
Supplies reduced to   2.1781% Note: One successful source step
Supplies reduced to   3.3172% Note: One successful source step
Supplies reduced to   5.0258% Note: One successful source step
Supplies reduced to   7.5887% Note: One successful source step
Supplies reduced to  11.4330% Note: One successful source step
Supplies reduced to  17.1995% Note: One successful source step
Supplies reduced to  25.8493% Note: One successful source step
Supplies reduced to  38.8239% Supplies reduced to  25.8493% Note: One successful source step
Supplies reduced to  26.4980% Note: One successful source step
Supplies reduced to  27.4711% Note: One successful source step
Supplies reduced to  28.9307% Note: One successful source step
Supplies reduced to  31.1202% Note: One successful source step
Supplies reduced to  34.4044% Note: One successful source step
Supplies reduced to  39.3307% Note: One successful source step
Supplies reduced to  46.7202% Note: One successful source step
Supplies reduced to  57.8044% Note: One successful source step
Supplies reduced to  74.4307% Supplies reduced to  57.8044% Note: One successful source step
Supplies reduced to  58.8044% Note: One successful source step
Supplies reduced to  60.3044% Note: One successful source step
Supplies reduced to  62.5544% Note: One successful source step
Supplies reduced to  65.9294% Supplies reduced to  62.5544% Note: One successful source step
Supplies reduced to  63.0606% Note: One successful source step
Supplies reduced to  63.8200% Supplies reduced to  63.0606% Note: One successful source step
Supplies reduced to  63.1745% Note: One successful source step
Supplies reduced to  63.3454% Note: One successful source step
Supplies reduced to  63.6017% Note: One successful source step
Supplies reduced to  63.9861% Supplies reduced to  63.6017% Note: One successful source step
Supplies reduced to  63.6593% Note: One successful source step
Supplies reduced to  63.7458% Note: One successful source step
Supplies reduced to  63.8756% Supplies reduced to  63.7458% Note: One successful source step
Supplies reduced to  63.7653% Supplies reduced to  63.7458% Note: One successful source step
Supplies reduced to  63.7488% Note: One successful source step
Supplies reduced to  63.7531% Note: One successful source step
Supplies reduced to  63.7597% Note: One successful source step
Supplies reduced to  63.7696% Supplies reduced to  63.7597% Note: One successful source step
Supplies reduced to  63.7612% Supplies reduced to  63.7597% Note: One successful source step
Supplies reduced to  63.7599% Note: One successful source step
Supplies reduced to  63.7603% Note: One successful source step
Supplies reduced to  63.7608% Supplies reduced to  63.7603% Note: One successful source step
Supplies reduced to  63.7603% Note: One successful source step
Supplies reduced to  63.7604% Note: One successful source step
Supplies reduced to  63.7606% Supplies reduced to  63.7604% Note: One successful source step
Supplies reduced to  63.7605% Note: One successful source step
Supplies reduced to  63.7605% Note: One successful source step
Supplies reduced to  63.7606% Note: One successful source step
Supplies reduced to  63.7607% Supplies reduced to  63.7606% Note: One successful source step
Supplies reduced to  63.7606% Note: One successful source step
Supplies reduced to  63.7606% Warning: source stepping failed
doAnalyses: Too many iterations without convergence

dc simulation(s) aborted
Error(parse.c--checkvalid): vldo_sup_2_8: zero length vector.
Error: RHS "abs((vldo_sup_2_8-vldo_sup_2)/0.8)" invalid
Error(parse.c--checkvalid): line_reg: zero length vector.
Error(parse.c--checkvalid): vin: zero length vector.
Error: RHS "vin-1.764" invalid
Error(parse.c--checkvalid): dropout: zero length vector.
Error: no such vector dropout
Note: No ".plot", ".print", or ".fourier" lines; no simulations run

Error: measure  pm  (AT) : out of interval
 meas ac pm find p when vdb(ldo_out)=0 failed!

Doing analysis at TEMP = 85.000000 and TNOM = 27.000000


No. of Data Rows : 91
psrr100             =  -5.345761e+01
psrr100k            =  -2.678598e+01
Doing analysis at TEMP = 85.000000 and TNOM = 27.000000


No. of Data Rows : 86
temp_coeff = 4.870840e+01
Doing analysis at TEMP = 85.000000 and TNOM = 27.000000


Error: measure  vldo_sup_2  (AT) : out of interval
 meas dc vldo_sup_2 find ldo_out at=2 failed!


Error: measure  vldo_sup_2_8  (AT) : out of interval
 meas dc vldo_sup_2_8 find ldo_out at=2.8 failed!


Error: measure  vin  (WHEN) : out of interval
 meas dc vin when v(ldo_out)=1.764 failed!

