 Reference value :  0.00000e+00
No compatibility mode selected!


Circuit: * ldo netlist 

Doing analysis at TEMP = 85.000000 and TNOM = 27.000000


No. of Data Rows : 1
bg_out = 1.102186e+00
inn = 1.064677e+00
inp = 1.064599e+00
l1#branch = 0.000000e+00
ldo_out = 1.812216e+00
m.xm1.msky130_fd_pr__nfet_g5v0d10v5#body = 2.755119e-11
m.xm1.msky130_fd_pr__nfet_g5v0d10v5#dbody = 5.289063e-11
m.xm1.msky130_fd_pr__nfet_g5v0d10v5#sbody = 2.976293e-11
m.xm2.msky130_fd_pr__pfet_g5v0d10v5#body = 2.300000e+00
m.xm2.msky130_fd_pr__pfet_g5v0d10v5#dbody = 2.300000e+00
m.xm2.msky130_fd_pr__pfet_g5v0d10v5#sbody = 2.300000e+00
m.xm3.msky130_fd_pr__pfet_g5v0d10v5#body = 2.300000e+00
m.xm3.msky130_fd_pr__pfet_g5v0d10v5#dbody = 2.300000e+00
m.xm3.msky130_fd_pr__pfet_g5v0d10v5#sbody = 2.300000e+00
m.xm4.msky130_fd_pr__pfet_g5v0d10v5#body = 2.300000e+00
m.xm4.msky130_fd_pr__pfet_g5v0d10v5#dbody = 2.300000e+00
m.xm4.msky130_fd_pr__pfet_g5v0d10v5#sbody = 2.300000e+00
m.xm5.msky130_fd_pr__pfet_g5v0d10v5#body = 2.300000e+00
m.xm5.msky130_fd_pr__pfet_g5v0d10v5#dbody = 2.300000e+00
m.xm5.msky130_fd_pr__pfet_g5v0d10v5#sbody = 2.300000e+00
m.xm6.msky130_fd_pr__nfet_g5v0d10v5#body = 1.989380e-11
m.xm6.msky130_fd_pr__nfet_g5v0d10v5#dbody = 4.973437e-11
m.xm6.msky130_fd_pr__nfet_g5v0d10v5#sbody = 9.947019e-12
m.xm7.msky130_fd_pr__pfet_g5v0d10v5#body = 2.300000e+00
m.xm7.msky130_fd_pr__pfet_g5v0d10v5#dbody = 2.300000e+00
m.xm7.msky130_fd_pr__pfet_g5v0d10v5#sbody = 2.300000e+00
m.xm8.msky130_fd_pr__pfet_g5v0d10v5#body = 2.300000e+00
m.xm8.msky130_fd_pr__pfet_g5v0d10v5#dbody = 2.300000e+00
m.xm8.msky130_fd_pr__pfet_g5v0d10v5#sbody = 2.300000e+00
m.xm9.msky130_fd_pr__nfet_g5v0d10v5#body = 2.569901e-11
m.xm9.msky130_fd_pr__nfet_g5v0d10v5#dbody = 5.128233e-11
m.xm9.msky130_fd_pr__nfet_g5v0d10v5#sbody = 2.581471e-11
m.xm10.msky130_fd_pr__nfet_g5v0d10v5#body = 2.554481e-11
m.xm10.msky130_fd_pr__nfet_g5v0d10v5#dbody = 5.089682e-11
m.xm10.msky130_fd_pr__nfet_g5v0d10v5#sbody = 2.573761e-11
m.xm11.msky130_fd_pr__pfet_g5v0d10v5#body = 2.300000e+00
m.xm11.msky130_fd_pr__pfet_g5v0d10v5#dbody = 2.300000e+00
m.xm11.msky130_fd_pr__pfet_g5v0d10v5#sbody = 2.300000e+00
m.xm12.msky130_fd_pr__pfet_g5v0d10v5#body = 2.300000e+00
m.xm12.msky130_fd_pr__pfet_g5v0d10v5#dbody = 2.300000e+00
m.xm12.msky130_fd_pr__pfet_g5v0d10v5#sbody = 2.300000e+00
m.xm13.msky130_fd_pr__nfet_g5v0d10v5#body = 4.836557e-12
m.xm13.msky130_fd_pr__nfet_g5v0d10v5#dbody = 1.209132e-11
m.xm13.msky130_fd_pr__nfet_g5v0d10v5#sbody = 2.418348e-12
m.xm14.msky130_fd_pr__pfet_g5v0d10v5#body = 2.300000e+00
m.xm14.msky130_fd_pr__pfet_g5v0d10v5#dbody = 2.300000e+00
m.xm14.msky130_fd_pr__pfet_g5v0d10v5#sbody = 2.300000e+00
m.xm15.msky130_fd_pr__nfet_g5v0d10v5#body = 2.832778e-14
m.xm15.msky130_fd_pr__nfet_g5v0d10v5#dbody = 7.081810e-14
m.xm15.msky130_fd_pr__nfet_g5v0d10v5#sbody = 1.416525e-14
m.xm16.msky130_fd_pr__nfet_g5v0d10v5#body = 5.261293e-11
m.xm16.msky130_fd_pr__nfet_g5v0d10v5#dbody = 9.436093e-11
m.xm16.msky130_fd_pr__nfet_g5v0d10v5#sbody = 6.347785e-11
m.xm17.msky130_fd_pr__pfet_g5v0d10v5#body = 2.300000e+00
m.xm17.msky130_fd_pr__pfet_g5v0d10v5#dbody = 2.300000e+00
m.xm17.msky130_fd_pr__pfet_g5v0d10v5#sbody = 2.300000e+00
m.xm18.msky130_fd_pr__nfet_g5v0d10v5#body = 1.235918e-11
m.xm18.msky130_fd_pr__nfet_g5v0d10v5#dbody = 3.089788e-11
m.xm18.msky130_fd_pr__nfet_g5v0d10v5#sbody = 6.179671e-12
m.xm19.msky130_fd_pr__nfet_g5v0d10v5#body = 2.766311e-11
m.xm19.msky130_fd_pr__nfet_g5v0d10v5#dbody = 5.317044e-11
m.xm19.msky130_fd_pr__nfet_g5v0d10v5#sbody = 2.981889e-11
m.xm20.msky130_fd_pr__nfet_g5v0d10v5#body = 1.357450e-11
m.xm20.msky130_fd_pr__nfet_g5v0d10v5#dbody = 3.393617e-11
m.xm20.msky130_fd_pr__nfet_g5v0d10v5#sbody = 6.787331e-12
m.xm22.msky130_fd_pr__nfet_g5v0d10v5#body = 1.128458e-11
m.xm22.msky130_fd_pr__nfet_g5v0d10v5#dbody = 2.821134e-11
m.xm22.msky130_fd_pr__nfet_g5v0d10v5#sbody = 5.642403e-12
m.xm24.msky130_fd_pr__pfet_g5v0d10v5#body = 2.300000e+00
m.xm24.msky130_fd_pr__pfet_g5v0d10v5#dbody = 2.300000e+00
m.xm24.msky130_fd_pr__pfet_g5v0d10v5#sbody = 2.300000e+00
m.xm26.msky130_fd_pr__pfet_g5v0d10v5#body = 2.300000e+00
m.xm26.msky130_fd_pr__pfet_g5v0d10v5#dbody = 2.300000e+00
m.xm26.msky130_fd_pr__pfet_g5v0d10v5#sbody = 2.300000e+00
mir = 1.142423e+00
net1 = 6.313839e-01
net2 = 5.471510e-05
net3 = 7.052097e-01
net4 = 2.179150e-01
net5 = 1.151377e+00
net6 = 9.056767e-01
net7 = 7.051310e-01
net8 = 1.234620e+00
net9 = 1.246956e+00
net10 = 2.285513e-01
net11 = 8.301970e-01
net12 = 8.301970e-01
net13 = 0.000000e+00
out = 8.301970e-01
pos = 1.102324e+00
q.xq2.qsky130_fd_pr__pnp_05v5_w0p68l0p68#collcx = 3.099227e-03
q.xq3.qsky130_fd_pr__pnp_05v5_w0p68l0p68#collcx = 3.913575e-04
q.xq4.qsky130_fd_pr__pnp_05v5_w0p68l0p68#collcx = 3.913575e-04
q.xq8.qsky130_fd_pr__pnp_05v5_w0p68l0p68#collcx = 3.913575e-04
q.xq10.qsky130_fd_pr__pnp_05v5_w0p68l0p68#collcx = 3.913575e-04
q.xq12.qsky130_fd_pr__pnp_05v5_w0p68l0p68#collcx = 3.913575e-04
q.xq14.qsky130_fd_pr__pnp_05v5_w0p68l0p68#collcx = 3.913575e-04
q.xq16.qsky130_fd_pr__pnp_05v5_w0p68l0p68#collcx = 3.913575e-04
q.xq18.qsky130_fd_pr__pnp_05v5_w0p68l0p68#collcx = 3.913575e-04
vb = 9.274223e-01
vdd = 2.300000e+00
vs#branch = -1.00822e-01
vt#branch = 0.000000e+00
xc1.a = 0.000000e+00
xc1.b1 = 0.000000e+00
xc3.a = 8.301970e-01
xc3.b1 = 8.301970e-01
xr1.xsky130_fd_pr__res_xhigh_po_0p69.ra = 7.083798e-01
xr2.xsky130_fd_pr__res_xhigh_po_0p69.ra = 7.084585e-01
xr3.xsky130_fd_pr__res_xhigh_po_0p69.ra = 1.987521e-03
xr4.xsky130_fd_pr__res_xhigh_po_0p69.ra = 6.326827e-01
xr5.xsky130_fd_pr__res_xhigh_po_0p69.ra = 1.987286e-03
xr6.xsky130_fd_pr__res_xhigh_po_0p69.ra = 3.436888e-03
xr7.xsky130_fd_pr__res_xhigh_po_0p69.ra = 8.301970e-01
xr8.xsky130_fd_pr__res_xhigh_po_0p69.ra = 1.107543e+00
xr9.xsky130_fd_pr__res_xhigh_po_0p69.ra = 5.387555e-03
Doing analysis at TEMP = 85.000000 and TNOM = 27.000000


No. of Data Rows : 91
Error: no such vector PM
Note: Starting true gmin stepping
Trying gmin =   1.0000E-03 Note: One successful gmin step
Trying gmin =   1.0000E-04 Note: One successful gmin step
Trying gmin =   1.0000E-05 Note: One successful gmin step
Trying gmin =   1.0000E-06 Note: One successful gmin step
Trying gmin =   1.0000E-07 Note: One successful gmin step
Trying gmin =   1.0000E-08 Note: One successful gmin step
Trying gmin =   3.1623E-09 Warning: Further gmin increment
Trying gmin =   7.4989E-09 Note: One successful gmin step
Trying gmin =   4.8697E-09 Note: One successful gmin step
Trying gmin =   2.5483E-09 Warning: Further gmin increment
Trying gmin =   4.1418E-09 Note: One successful gmin step
Trying gmin =   3.2488E-09 Note: One successful gmin step
Trying gmin =   2.2569E-09 Note: One successful gmin step
Trying gmin =   1.3068E-09 Note: One successful gmin step
Trying gmin =   5.7578E-10 Note: One successful gmin step
Trying gmin =   1.6839E-10 Note: One successful gmin step
Trying gmin =   2.6633E-11 Note: One successful gmin step
Trying gmin =   2.6633E-12 Note: One successful gmin step
Trying gmin =   1.0000E-12 Note: One successful gmin step
Note: True gmin stepping completed
 Reference value :  1.14000e+00Note: Starting true gmin stepping
Trying gmin =   1.0000E-03 Note: One successful gmin step
Trying gmin =   1.0000E-04 Note: One successful gmin step
Trying gmin =   1.0000E-05 Note: One successful gmin step
Trying gmin =   1.0000E-06 Note: One successful gmin step
Trying gmin =   1.0000E-07 Note: One successful gmin step
Trying gmin =   1.0000E-08 Note: One successful gmin step
Trying gmin =   1.0000E-09 Warning: Further gmin increment
Trying gmin =   5.6234E-09 Note: One successful gmin step
Trying gmin =   2.3714E-09 Note: One successful gmin step
Trying gmin =   1.5399E-09 Note: One successful gmin step
Trying gmin =   8.0584E-10 Note: One successful gmin step
Trying gmin =   3.0505E-10 Note: One successful gmin step
Trying gmin =   7.1050E-11 Note: One successful gmin step
Trying gmin =   7.9863E-12 Note: One successful gmin step
Trying gmin =   1.0000E-12 Note: One successful gmin step
Note: True gmin stepping completed

Error: measure  pm  (AT) : out of interval
 meas ac pm find p when vdb(ldo_out)=0 failed!

Doing analysis at TEMP = 85.000000 and TNOM = 27.000000


No. of Data Rows : 91
psrr100             =  -5.115960e+01
psrr100k            =  -2.457995e+01
Doing analysis at TEMP = 85.000000 and TNOM = 27.000000


No. of Data Rows : 86
temp_coeff = 6.358163e+01
Doing analysis at TEMP = 85.000000 and TNOM = 27.000000


No. of Data Rows : 141
vldo_sup_2          =  1.809458e+00
vldo_sup_2_8        =  1.813320e+00
line_reg = 4.827500e-03
Note: No ".plot", ".print", or ".fourier" lines; no simulations run
vin                 =  1.948152e+00
dropout = 1.841520e-01
