 Reference value :  0.00000e+00
No compatibility mode selected!


Circuit: * ldo netlist 

Doing analysis at TEMP = 85.000000 and TNOM = 27.000000


No. of Data Rows : 1
bg_out = 1.097162e+00
inn = 1.055989e+00
inp = 1.055959e+00
l1#branch = 0.000000e+00
ldo_out = 1.803945e+00
m.xm1.msky130_fd_pr__nfet_g5v0d10v5#body = 3.123002e-11
m.xm1.msky130_fd_pr__nfet_g5v0d10v5#dbody = 6.138365e-11
m.xm1.msky130_fd_pr__nfet_g5v0d10v5#sbody = 3.230639e-11
m.xm2.msky130_fd_pr__pfet_g5v0d10v5#body = 2.500000e+00
m.xm2.msky130_fd_pr__pfet_g5v0d10v5#dbody = 2.500000e+00
m.xm2.msky130_fd_pr__pfet_g5v0d10v5#sbody = 2.500000e+00
m.xm3.msky130_fd_pr__pfet_g5v0d10v5#body = 2.500000e+00
m.xm3.msky130_fd_pr__pfet_g5v0d10v5#dbody = 2.500000e+00
m.xm3.msky130_fd_pr__pfet_g5v0d10v5#sbody = 2.500000e+00
m.xm4.msky130_fd_pr__pfet_g5v0d10v5#body = 2.500000e+00
m.xm4.msky130_fd_pr__pfet_g5v0d10v5#dbody = 2.500000e+00
m.xm4.msky130_fd_pr__pfet_g5v0d10v5#sbody = 2.500000e+00
m.xm5.msky130_fd_pr__pfet_g5v0d10v5#body = 2.500000e+00
m.xm5.msky130_fd_pr__pfet_g5v0d10v5#dbody = 2.500000e+00
m.xm5.msky130_fd_pr__pfet_g5v0d10v5#sbody = 2.500000e+00
m.xm6.msky130_fd_pr__nfet_g5v0d10v5#body = 1.938065e-11
m.xm6.msky130_fd_pr__nfet_g5v0d10v5#dbody = 4.845150e-11
m.xm6.msky130_fd_pr__nfet_g5v0d10v5#sbody = 9.690444e-12
m.xm7.msky130_fd_pr__pfet_g5v0d10v5#body = 2.500000e+00
m.xm7.msky130_fd_pr__pfet_g5v0d10v5#dbody = 2.500000e+00
m.xm7.msky130_fd_pr__pfet_g5v0d10v5#sbody = 2.500000e+00
m.xm8.msky130_fd_pr__pfet_g5v0d10v5#body = 2.500000e+00
m.xm8.msky130_fd_pr__pfet_g5v0d10v5#dbody = 2.500000e+00
m.xm8.msky130_fd_pr__pfet_g5v0d10v5#sbody = 2.500000e+00
m.xm9.msky130_fd_pr__nfet_g5v0d10v5#body = 2.935845e-11
m.xm9.msky130_fd_pr__nfet_g5v0d10v5#dbody = 5.961080e-11
m.xm9.msky130_fd_pr__nfet_g5v0d10v5#sbody = 2.846444e-11
m.xm10.msky130_fd_pr__nfet_g5v0d10v5#body = 2.919974e-11
m.xm10.msky130_fd_pr__nfet_g5v0d10v5#dbody = 5.921407e-11
m.xm10.msky130_fd_pr__nfet_g5v0d10v5#sbody = 2.838508e-11
m.xm11.msky130_fd_pr__pfet_g5v0d10v5#body = 2.500000e+00
m.xm11.msky130_fd_pr__pfet_g5v0d10v5#dbody = 2.500000e+00
m.xm11.msky130_fd_pr__pfet_g5v0d10v5#sbody = 2.500000e+00
m.xm12.msky130_fd_pr__pfet_g5v0d10v5#body = 2.500000e+00
m.xm12.msky130_fd_pr__pfet_g5v0d10v5#dbody = 2.500000e+00
m.xm12.msky130_fd_pr__pfet_g5v0d10v5#sbody = 2.500000e+00
m.xm13.msky130_fd_pr__nfet_g5v0d10v5#body = 5.245460e-12
m.xm13.msky130_fd_pr__nfet_g5v0d10v5#dbody = 1.311358e-11
m.xm13.msky130_fd_pr__nfet_g5v0d10v5#sbody = 2.622801e-12
m.xm14.msky130_fd_pr__pfet_g5v0d10v5#body = 2.500000e+00
m.xm14.msky130_fd_pr__pfet_g5v0d10v5#dbody = 2.500000e+00
m.xm14.msky130_fd_pr__pfet_g5v0d10v5#sbody = 2.500000e+00
m.xm15.msky130_fd_pr__nfet_g5v0d10v5#body = 6.605173e-14
m.xm15.msky130_fd_pr__nfet_g5v0d10v5#dbody = 1.651251e-13
m.xm15.msky130_fd_pr__nfet_g5v0d10v5#sbody = 3.303012e-14
m.xm16.msky130_fd_pr__nfet_g5v0d10v5#body = 5.495247e-11
m.xm16.msky130_fd_pr__nfet_g5v0d10v5#dbody = 1.004788e-10
m.xm16.msky130_fd_pr__nfet_g5v0d10v5#sbody = 6.437857e-11
m.xm17.msky130_fd_pr__pfet_g5v0d10v5#body = 2.500000e+00
m.xm17.msky130_fd_pr__pfet_g5v0d10v5#dbody = 2.500000e+00
m.xm17.msky130_fd_pr__pfet_g5v0d10v5#sbody = 2.500000e+00
m.xm18.msky130_fd_pr__nfet_g5v0d10v5#body = 1.677269e-11
m.xm18.msky130_fd_pr__nfet_g5v0d10v5#dbody = 4.193164e-11
m.xm18.msky130_fd_pr__nfet_g5v0d10v5#sbody = 8.386427e-12
m.xm19.msky130_fd_pr__nfet_g5v0d10v5#body = 3.127819e-11
m.xm19.msky130_fd_pr__nfet_g5v0d10v5#dbody = 6.150406e-11
m.xm19.msky130_fd_pr__nfet_g5v0d10v5#sbody = 3.233047e-11
m.xm20.msky130_fd_pr__nfet_g5v0d10v5#body = 1.279063e-11
m.xm20.msky130_fd_pr__nfet_g5v0d10v5#dbody = 3.197648e-11
m.xm20.msky130_fd_pr__nfet_g5v0d10v5#sbody = 6.395392e-12
m.xm22.msky130_fd_pr__nfet_g5v0d10v5#body = 1.163938e-11
m.xm22.msky130_fd_pr__nfet_g5v0d10v5#dbody = 2.909834e-11
m.xm22.msky130_fd_pr__nfet_g5v0d10v5#sbody = 5.819804e-12
m.xm24.msky130_fd_pr__pfet_g5v0d10v5#body = 2.500000e+00
m.xm24.msky130_fd_pr__pfet_g5v0d10v5#dbody = 2.500000e+00
m.xm24.msky130_fd_pr__pfet_g5v0d10v5#sbody = 2.500000e+00
m.xm26.msky130_fd_pr__pfet_g5v0d10v5#body = 2.500000e+00
m.xm26.msky130_fd_pr__pfet_g5v0d10v5#dbody = 2.500000e+00
m.xm26.msky130_fd_pr__pfet_g5v0d10v5#sbody = 2.500000e+00
mir = 1.410642e+00
net1 = 6.240959e-01
net2 = 1.279085e-04
net3 = 6.981373e-01
net4 = 2.477944e-01
net5 = 1.414495e+00
net6 = 8.666992e-01
net7 = 6.981070e-01
net8 = 1.496286e+00
net9 = 1.508981e+00
net10 = 2.632310e-01
net11 = 1.185352e+00
net12 = 1.185352e+00
net13 = 0.000000e+00
out = 1.185352e+00
pos = 1.097294e+00
q.xq2.qsky130_fd_pr__pnp_05v5_w0p68l0p68#collcx = 3.166654e-03
q.xq3.qsky130_fd_pr__pnp_05v5_w0p68l0p68#collcx = 3.985626e-04
q.xq4.qsky130_fd_pr__pnp_05v5_w0p68l0p68#collcx = 3.985626e-04
q.xq8.qsky130_fd_pr__pnp_05v5_w0p68l0p68#collcx = 3.985626e-04
q.xq10.qsky130_fd_pr__pnp_05v5_w0p68l0p68#collcx = 3.985626e-04
q.xq12.qsky130_fd_pr__pnp_05v5_w0p68l0p68#collcx = 3.985626e-04
q.xq14.qsky130_fd_pr__pnp_05v5_w0p68l0p68#collcx = 3.985626e-04
q.xq16.qsky130_fd_pr__pnp_05v5_w0p68l0p68#collcx = 3.985626e-04
q.xq18.qsky130_fd_pr__pnp_05v5_w0p68l0p68#collcx = 3.985626e-04
vb = 8.667868e-01
vdd = 2.500000e+00
vs#branch = -1.00365e-01
vt#branch = 0.000000e+00
xc1.a = 0.000000e+00
xc1.b1 = 0.000000e+00
xc3.a = 1.185352e+00
xc3.b1 = 1.185352e+00
xr1.xsky130_fd_pr__res_xhigh_po_0p69.ra = 7.013409e-01
xr2.xsky130_fd_pr__res_xhigh_po_0p69.ra = 7.013712e-01
xr3.xsky130_fd_pr__res_xhigh_po_0p69.ra = 1.966438e-03
xr4.xsky130_fd_pr__res_xhigh_po_0p69.ra = 6.253993e-01
xr5.xsky130_fd_pr__res_xhigh_po_0p69.ra = 1.966348e-03
xr6.xsky130_fd_pr__res_xhigh_po_0p69.ra = 3.419880e-03
xr7.xsky130_fd_pr__res_xhigh_po_0p69.ra = 1.185352e+00
xr8.xsky130_fd_pr__res_xhigh_po_0p69.ra = 1.102487e+00
xr9.xsky130_fd_pr__res_xhigh_po_0p69.ra = 5.360870e-03
Doing analysis at TEMP = 85.000000 and TNOM = 27.000000


No. of Data Rows : 91
Error: no such vector PM
Note: Starting true gmin stepping
Trying gmin =   1.0000E-03 Note: One successful gmin step
Trying gmin =   1.0000E-04 Note: One successful gmin step
Trying gmin =   1.0000E-05 Note: One successful gmin step
Trying gmin =   1.0000E-06 Note: One successful gmin step
Trying gmin =   1.0000E-07 Note: One successful gmin step
Trying gmin =   1.0000E-08 Note: One successful gmin step
Trying gmin =   3.1623E-09 Note: One successful gmin step
Trying gmin =   5.6234E-10 Note: One successful gmin step
Trying gmin =   5.6234E-11 Note: One successful gmin step
Trying gmin =   5.6234E-12 Note: One successful gmin step
Trying gmin =   1.0000E-12 Note: One successful gmin step
Note: True gmin stepping completed
 Reference value :  1.10000e+00
Error: measure  pm  (AT) : out of interval
 meas ac pm find p when vdb(ldo_out)=0 failed!

Doing analysis at TEMP = 85.000000 and TNOM = 27.000000


No. of Data Rows : 91
psrr100             =  -5.518785e+01
psrr100k            =  -2.437358e+01
Doing analysis at TEMP = 85.000000 and TNOM = 27.000000


No. of Data Rows : 86
temp_coeff = 5.581341e+01
Doing analysis at TEMP = 85.000000 and TNOM = 27.000000


No. of Data Rows : 141
vldo_sup_2          =  1.802353e+00
vldo_sup_2_8        =  1.804394e+00
line_reg = 2.551250e-03
Note: No ".plot", ".print", or ".fourier" lines; no simulations run
vin                 =  1.920249e+00
dropout = 1.562490e-01
