 Reference value :  0.00000e+00
No compatibility mode selected!


Circuit: * ldo netlist 

Doing analysis at TEMP = 27.000000 and TNOM = 27.000000


No. of Data Rows : 1
bg_out = 1.192543e+00
inn = 1.222410e+00
inp = 1.222368e+00
l1#branch = 0.000000e+00
ldo_out = 1.792984e+00
m.xm1.msky130_fd_pr__nfet_g5v0d10v5#body = 1.411757e-11
m.xm1.msky130_fd_pr__nfet_g5v0d10v5#dbody = 2.681501e-11
m.xm1.msky130_fd_pr__nfet_g5v0d10v5#sbody = 1.553771e-11
m.xm2.msky130_fd_pr__pfet_g5v0d10v5#body = 2.100000e+00
m.xm2.msky130_fd_pr__pfet_g5v0d10v5#dbody = 2.100000e+00
m.xm2.msky130_fd_pr__pfet_g5v0d10v5#sbody = 2.100000e+00
m.xm3.msky130_fd_pr__pfet_g5v0d10v5#body = 2.100000e+00
m.xm3.msky130_fd_pr__pfet_g5v0d10v5#dbody = 2.100000e+00
m.xm3.msky130_fd_pr__pfet_g5v0d10v5#sbody = 2.100000e+00
m.xm4.msky130_fd_pr__pfet_g5v0d10v5#body = 2.100000e+00
m.xm4.msky130_fd_pr__pfet_g5v0d10v5#dbody = 2.100000e+00
m.xm4.msky130_fd_pr__pfet_g5v0d10v5#sbody = 2.100000e+00
m.xm5.msky130_fd_pr__pfet_g5v0d10v5#body = 2.100000e+00
m.xm5.msky130_fd_pr__pfet_g5v0d10v5#dbody = 2.100000e+00
m.xm5.msky130_fd_pr__pfet_g5v0d10v5#sbody = 2.100000e+00
m.xm6.msky130_fd_pr__nfet_g5v0d10v5#body = 1.107273e-11
m.xm6.msky130_fd_pr__nfet_g5v0d10v5#dbody = 2.768181e-11
m.xm6.msky130_fd_pr__nfet_g5v0d10v5#sbody = 5.536368e-12
m.xm7.msky130_fd_pr__pfet_g5v0d10v5#body = 2.100000e+00
m.xm7.msky130_fd_pr__pfet_g5v0d10v5#dbody = 2.100000e+00
m.xm7.msky130_fd_pr__pfet_g5v0d10v5#sbody = 2.100000e+00
m.xm8.msky130_fd_pr__pfet_g5v0d10v5#body = 2.100000e+00
m.xm8.msky130_fd_pr__pfet_g5v0d10v5#dbody = 2.100000e+00
m.xm8.msky130_fd_pr__pfet_g5v0d10v5#sbody = 2.100000e+00
m.xm9.msky130_fd_pr__nfet_g5v0d10v5#body = 1.479655e-11
m.xm9.msky130_fd_pr__nfet_g5v0d10v5#dbody = 2.936828e-11
m.xm9.msky130_fd_pr__nfet_g5v0d10v5#sbody = 1.502136e-11
m.xm10.msky130_fd_pr__nfet_g5v0d10v5#body = 1.482729e-11
m.xm10.msky130_fd_pr__nfet_g5v0d10v5#dbody = 2.944514e-11
m.xm10.msky130_fd_pr__nfet_g5v0d10v5#sbody = 1.503674e-11
m.xm11.msky130_fd_pr__pfet_g5v0d10v5#body = 2.100000e+00
m.xm11.msky130_fd_pr__pfet_g5v0d10v5#dbody = 2.100000e+00
m.xm11.msky130_fd_pr__pfet_g5v0d10v5#sbody = 2.100000e+00
m.xm12.msky130_fd_pr__pfet_g5v0d10v5#body = 2.100000e+00
m.xm12.msky130_fd_pr__pfet_g5v0d10v5#dbody = 2.100000e+00
m.xm12.msky130_fd_pr__pfet_g5v0d10v5#sbody = 2.100000e+00
m.xm13.msky130_fd_pr__nfet_g5v0d10v5#body = 3.810188e-12
m.xm13.msky130_fd_pr__nfet_g5v0d10v5#dbody = 9.525458e-12
m.xm13.msky130_fd_pr__nfet_g5v0d10v5#sbody = 1.905104e-12
m.xm14.msky130_fd_pr__pfet_g5v0d10v5#body = 2.100000e+00
m.xm14.msky130_fd_pr__pfet_g5v0d10v5#dbody = 2.100000e+00
m.xm14.msky130_fd_pr__pfet_g5v0d10v5#sbody = 2.100000e+00
m.xm15.msky130_fd_pr__nfet_g5v0d10v5#body = 2.211356e-18
m.xm15.msky130_fd_pr__nfet_g5v0d10v5#dbody = 5.528177e-18
m.xm15.msky130_fd_pr__nfet_g5v0d10v5#sbody = 1.105890e-18
m.xm16.msky130_fd_pr__nfet_g5v0d10v5#body = 4.153875e-11
m.xm16.msky130_fd_pr__nfet_g5v0d10v5#dbody = 7.327801e-11
m.xm16.msky130_fd_pr__nfet_g5v0d10v5#sbody = 5.133825e-11
m.xm17.msky130_fd_pr__pfet_g5v0d10v5#body = 2.100000e+00
m.xm17.msky130_fd_pr__pfet_g5v0d10v5#dbody = 2.100000e+00
m.xm17.msky130_fd_pr__pfet_g5v0d10v5#sbody = 2.100000e+00
m.xm18.msky130_fd_pr__nfet_g5v0d10v5#body = 4.051097e-12
m.xm18.msky130_fd_pr__nfet_g5v0d10v5#dbody = 1.012773e-11
m.xm18.msky130_fd_pr__nfet_g5v0d10v5#sbody = 2.025559e-12
m.xm19.msky130_fd_pr__nfet_g5v0d10v5#body = 1.416003e-11
m.xm19.msky130_fd_pr__nfet_g5v0d10v5#dbody = 2.692114e-11
m.xm19.msky130_fd_pr__nfet_g5v0d10v5#sbody = 1.555894e-11
m.xm20.msky130_fd_pr__nfet_g5v0d10v5#body = 1.098987e-11
m.xm20.msky130_fd_pr__nfet_g5v0d10v5#dbody = 2.747466e-11
m.xm20.msky130_fd_pr__nfet_g5v0d10v5#sbody = 5.494946e-12
m.xm22.msky130_fd_pr__nfet_g5v0d10v5#body = 4.242176e-12
m.xm22.msky130_fd_pr__nfet_g5v0d10v5#dbody = 1.060544e-11
m.xm22.msky130_fd_pr__nfet_g5v0d10v5#sbody = 2.121093e-12
m.xm24.msky130_fd_pr__pfet_g5v0d10v5#body = 2.100000e+00
m.xm24.msky130_fd_pr__pfet_g5v0d10v5#dbody = 2.100000e+00
m.xm24.msky130_fd_pr__pfet_g5v0d10v5#sbody = 2.100000e+00
m.xm26.msky130_fd_pr__pfet_g5v0d10v5#body = 2.100000e+00
m.xm26.msky130_fd_pr__pfet_g5v0d10v5#dbody = 2.100000e+00
m.xm26.msky130_fd_pr__pfet_g5v0d10v5#sbody = 2.100000e+00
mir = 7.899037e-01
net1 = 7.251223e-01
net2 = 1.701598e-07
net3 = 7.846692e-01
net4 = 3.388118e-01
net5 = 7.933000e-01
net6 = 8.852557e-01
net7 = 7.846270e-01
net8 = 8.810232e-01
net9 = 8.785636e-01
net10 = 3.046869e-01
net11 = 3.239596e-01
net12 = 3.239596e-01
net13 = 0.000000e+00
out = 3.239596e-01
pos = 1.192512e+00
q.xq2.qsky130_fd_pr__pnp_05v5_w0p68l0p68#collcx = 2.093216e-03
q.xq3.qsky130_fd_pr__pnp_05v5_w0p68l0p68#collcx = 2.635987e-04
q.xq4.qsky130_fd_pr__pnp_05v5_w0p68l0p68#collcx = 2.635987e-04
q.xq8.qsky130_fd_pr__pnp_05v5_w0p68l0p68#collcx = 2.635987e-04
q.xq10.qsky130_fd_pr__pnp_05v5_w0p68l0p68#collcx = 2.635987e-04
q.xq12.qsky130_fd_pr__pnp_05v5_w0p68l0p68#collcx = 2.635987e-04
q.xq14.qsky130_fd_pr__pnp_05v5_w0p68l0p68#collcx = 2.635987e-04
q.xq16.qsky130_fd_pr__pnp_05v5_w0p68l0p68#collcx = 2.635987e-04
q.xq18.qsky130_fd_pr__pnp_05v5_w0p68l0p68#collcx = 2.635987e-04
vb = 8.790612e-01
vdd = 2.100000e+00
vs#branch = -9.97297e-02
vt#branch = 0.000000e+00
xc1.a = 0.000000e+00
xc1.b1 = 0.000000e+00
xc3.a = 3.239596e-01
xc3.b1 = 3.239596e-01
xr1.xsky130_fd_pr__res_xhigh_po_0p69.ra = 7.921735e-01
xr2.xsky130_fd_pr__res_xhigh_po_0p69.ra = 7.922157e-01
xr3.xsky130_fd_pr__res_xhigh_po_0p69.ra = 5.108693e-03
xr4.xsky130_fd_pr__res_xhigh_po_0p69.ra = 7.276589e-01
xr5.xsky130_fd_pr__res_xhigh_po_0p69.ra = 5.108400e-03
xr6.xsky130_fd_pr__res_xhigh_po_0p69.ra = 8.022457e-03
xr7.xsky130_fd_pr__res_xhigh_po_0p69.ra = 3.239596e-01
xr8.xsky130_fd_pr__res_xhigh_po_0p69.ra = 1.205859e+00
xr9.xsky130_fd_pr__res_xhigh_po_0p69.ra = 1.399599e-02
Doing analysis at TEMP = 27.000000 and TNOM = 27.000000


No. of Data Rows : 91
Note: Starting true gmin stepping
Trying gmin =   1.0000E-03 Note: One successful gmin step
Trying gmin =   1.0000E-04 Note: One successful gmin step
Trying gmin =   1.0000E-05 Note: One successful gmin step
Trying gmin =   1.0000E-06 Note: One successful gmin step
Trying gmin =   1.0000E-07 Note: One successful gmin step
Trying gmin =   1.0000E-08 Note: One successful gmin step
Trying gmin =   1.0000E-09 Note: One successful gmin step
Trying gmin =   1.0000E-10 Note: One successful gmin step
Trying gmin =   1.0000E-11 Note: One successful gmin step
Trying gmin =   1.0000E-12 Note: One successful gmin step
Trying gmin =   1.0000E-12 Note: One successful gmin step
Note: True gmin stepping completed
 Reference value :  1.38000e+00Note: Starting true gmin stepping
Trying gmin =   1.0000E-03 Note: One successful gmin step
Trying gmin =   1.0000E-04 Note: One successful gmin step
Trying gmin =   1.0000E-05 Note: One successful gmin step
Trying gmin =   1.0000E-06 Note: One successful gmin step
Trying gmin =   1.0000E-07 Note: One successful gmin step
Trying gmin =   1.0000E-08 Note: One successful gmin step
Trying gmin =   3.1623E-09 Note: One successful gmin step
Trying gmin =   5.6234E-10 Note: One successful gmin step
Trying gmin =   5.6234E-11 Note: One successful gmin step
Trying gmin =   5.6234E-12 Note: One successful gmin step
Trying gmin =   1.0000E-12 Note: One successful gmin step
Note: True gmin stepping completed
pm                  =  1.067610e+02
Doing analysis at TEMP = 27.000000 and TNOM = 27.000000


No. of Data Rows : 91
psrr100             =  -5.272644e+01
psrr100k            =  -1.992886e+01
Doing analysis at TEMP = 27.000000 and TNOM = 27.000000


No. of Data Rows : 86
temp_coeff = 9.116258e+01
Doing analysis at TEMP = 27.000000 and TNOM = 27.000000


No. of Data Rows : 141
vldo_sup_2          =  1.789243e+00
vldo_sup_2_8        =  1.793221e+00
line_reg = 4.972500e-03
Note: No ".plot", ".print", or ".fourier" lines; no simulations run
vin                 =  1.976014e+00
dropout = 2.120140e-01
