Note: Starting true gmin stepping
Trying gmin =   1.0000E-03 Note: One successful gmin step
Trying gmin =   1.0000E-04 Note: One successful gmin step
Trying gmin =   1.0000E-05 Note: One successful gmin step
Trying gmin =   1.0000E-06 Note: One successful gmin step
Trying gmin =   1.0000E-07 Note: One successful gmin step
Trying gmin =   3.1623E-08 Note: One successful gmin step
Trying gmin =   5.6234E-09 Note: One successful gmin step
Trying gmin =   5.6234E-10 Note: One successful gmin step
Trying gmin =   5.6234E-11 Note: One successful gmin step
Trying gmin =   5.6234E-12 Note: One successful gmin step
Trying gmin =   1.0000E-12 Note: One successful gmin step
Note: True gmin stepping completed
 Reference value :  0.00000e+00
No compatibility mode selected!


Circuit: * ldo netlist 

Doing analysis at TEMP = 27.000000 and TNOM = 27.000000


No. of Data Rows : 1
bg_out = 2.462723e+00
inn = 2.434744e+00
inp = -4.10240e+02
l1#branch = 0.000000e+00
ldo_out = 2.487427e+00
m.xm1.msky130_fd_pr__nfet_g5v0d10v5#body = 5.669508e-16
m.xm1.msky130_fd_pr__nfet_g5v0d10v5#dbody = 9.164576e-16
m.xm1.msky130_fd_pr__nfet_g5v0d10v5#sbody = 7.843948e-16
m.xm2.msky130_fd_pr__pfet_g5v0d10v5#body = 2.491931e+00
m.xm2.msky130_fd_pr__pfet_g5v0d10v5#dbody = 2.495965e+00
m.xm2.msky130_fd_pr__pfet_g5v0d10v5#sbody = 2.495965e+00
m.xm3.msky130_fd_pr__pfet_g5v0d10v5#body = 2.500000e+00
m.xm3.msky130_fd_pr__pfet_g5v0d10v5#dbody = 2.500000e+00
m.xm3.msky130_fd_pr__pfet_g5v0d10v5#sbody = 2.500000e+00
m.xm4.msky130_fd_pr__pfet_g5v0d10v5#body = 2.500000e+00
m.xm4.msky130_fd_pr__pfet_g5v0d10v5#dbody = 2.500000e+00
m.xm4.msky130_fd_pr__pfet_g5v0d10v5#sbody = 2.500000e+00
m.xm5.msky130_fd_pr__pfet_g5v0d10v5#body = 2.500000e+00
m.xm5.msky130_fd_pr__pfet_g5v0d10v5#dbody = 2.500000e+00
m.xm5.msky130_fd_pr__pfet_g5v0d10v5#sbody = 2.500000e+00
m.xm6.msky130_fd_pr__nfet_g5v0d10v5#body = 2.238600e-11
m.xm6.msky130_fd_pr__nfet_g5v0d10v5#dbody = 5.567475e-11
m.xm6.msky130_fd_pr__nfet_g5v0d10v5#sbody = 1.119314e-11
m.xm7.msky130_fd_pr__pfet_g5v0d10v5#body = 2.500000e+00
m.xm7.msky130_fd_pr__pfet_g5v0d10v5#dbody = 2.500000e+00
m.xm7.msky130_fd_pr__pfet_g5v0d10v5#sbody = 2.500000e+00
m.xm8.msky130_fd_pr__pfet_g5v0d10v5#body = 2.500000e+00
m.xm8.msky130_fd_pr__pfet_g5v0d10v5#dbody = 2.500000e+00
m.xm8.msky130_fd_pr__pfet_g5v0d10v5#sbody = 2.500000e+00
m.xm9.msky130_fd_pr__nfet_g5v0d10v5#body = 1.273269e-11
m.xm9.msky130_fd_pr__nfet_g5v0d10v5#dbody = 2.081208e-11
m.xm9.msky130_fd_pr__nfet_g5v0d10v5#sbody = 1.738599e-11
m.xm10.msky130_fd_pr__nfet_g5v0d10v5#body = 5.879917e-11
m.xm10.msky130_fd_pr__nfet_g5v0d10v5#dbody = 8.965721e-11
m.xm10.msky130_fd_pr__nfet_g5v0d10v5#sbody = 4.041915e-11
m.xm11.msky130_fd_pr__pfet_g5v0d10v5#body = 2.500000e+00
m.xm11.msky130_fd_pr__pfet_g5v0d10v5#dbody = 2.500000e+00
m.xm11.msky130_fd_pr__pfet_g5v0d10v5#sbody = 2.500000e+00
m.xm12.msky130_fd_pr__pfet_g5v0d10v5#body = 2.500000e+00
m.xm12.msky130_fd_pr__pfet_g5v0d10v5#dbody = 2.500000e+00
m.xm12.msky130_fd_pr__pfet_g5v0d10v5#sbody = 2.500000e+00
m.xm13.msky130_fd_pr__nfet_g5v0d10v5#body = 5.508423e-12
m.xm13.msky130_fd_pr__nfet_g5v0d10v5#dbody = 1.377083e-11
m.xm13.msky130_fd_pr__nfet_g5v0d10v5#sbody = 2.754430e-12
m.xm14.msky130_fd_pr__pfet_g5v0d10v5#body = 2.500000e+00
m.xm14.msky130_fd_pr__pfet_g5v0d10v5#dbody = 2.500000e+00
m.xm14.msky130_fd_pr__pfet_g5v0d10v5#sbody = 2.500000e+00
m.xm15.msky130_fd_pr__nfet_g5v0d10v5#body = 2.444338e-21
m.xm15.msky130_fd_pr__nfet_g5v0d10v5#dbody = 6.110374e-21
m.xm15.msky130_fd_pr__nfet_g5v0d10v5#sbody = 1.222640e-21
m.xm16.msky130_fd_pr__nfet_g5v0d10v5#body = 6.169305e-11
m.xm16.msky130_fd_pr__nfet_g5v0d10v5#dbody = 9.335528e-11
m.xm16.msky130_fd_pr__nfet_g5v0d10v5#sbody = 9.172387e-11
m.xm17.msky130_fd_pr__pfet_g5v0d10v5#body = 2.500000e+00
m.xm17.msky130_fd_pr__pfet_g5v0d10v5#dbody = 2.500000e+00
m.xm17.msky130_fd_pr__pfet_g5v0d10v5#sbody = 2.500000e+00
m.xm18.msky130_fd_pr__nfet_g5v0d10v5#body = 3.138423e-19
m.xm18.msky130_fd_pr__nfet_g5v0d10v5#dbody = 7.845874e-19
m.xm18.msky130_fd_pr__nfet_g5v0d10v5#sbody = 1.569394e-19
m.xm19.msky130_fd_pr__nfet_g5v0d10v5#body = 5.070946e-08
m.xm19.msky130_fd_pr__nfet_g5v0d10v5#dbody = 2.539858e-08
m.xm19.msky130_fd_pr__nfet_g5v0d10v5#sbody = 2.535473e-08
m.xm20.msky130_fd_pr__nfet_g5v0d10v5#body = 2.365800e-11
m.xm20.msky130_fd_pr__nfet_g5v0d10v5#dbody = 5.909103e-11
m.xm20.msky130_fd_pr__nfet_g5v0d10v5#sbody = 1.182930e-11
m.xm22.msky130_fd_pr__nfet_g5v0d10v5#body = 2.523832e-16
m.xm22.msky130_fd_pr__nfet_g5v0d10v5#dbody = 6.309505e-16
m.xm22.msky130_fd_pr__nfet_g5v0d10v5#sbody = 1.261991e-16
m.xm24.msky130_fd_pr__pfet_g5v0d10v5#body = 2.500000e+00
m.xm24.msky130_fd_pr__pfet_g5v0d10v5#dbody = 2.500000e+00
m.xm24.msky130_fd_pr__pfet_g5v0d10v5#sbody = 2.500000e+00
m.xm26.msky130_fd_pr__pfet_g5v0d10v5#body = 2.500000e+00
m.xm26.msky13Note: Starting true gmin stepping
Trying gmin =   1.0000E-03 Note: One successful gmin step
Trying gmin =   1.0000E-04 Note: One successful gmin step
Trying gmin =   1.0000E-05 Note: One successful gmin step
Trying gmin =   1.0000E-06 Note: One successful gmin step
Trying gmin =   1.0000E-07 Note: One successful gmin step
Trying gmin =   3.1623E-08 Note: One successful gmin step
Trying gmin =   5.6234E-09 Note: One successful gmin step
Trying gmin =   5.6234E-10 Note: One successful gmin step
Trying gmin =   5.6234E-11 Note: One successful gmin step
Trying gmin =   5.6234E-12 Note: One successful gmin step
Trying gmin =   1.0000E-12 Note: One successful gmin step
Note: True gmin stepping completed
0_fd_pr__pfet_g5v0d10v5#dbody = 2.500000e+00
m.xm26.msky130_fd_pr__pfet_g5v0d10v5#sbody = 2.500000e+00
mir = 2.500549e-05
net1 = 2.662259e+00
net2 = 1.880557e-10
net3 = 8.651481e-01
net4 = 1.978799e-05
net5 = 1.753625e+00
net6 = 1.778708e+00
net7 = -6.39664e+02
net8 = 2.410064e+00
net9 = 5.775914e-01
net10 = 4.405406e-01
net11 = 2.498811e-08
net12 = 2.498811e-08
net13 = 0.000000e+00
out = 2.498811e-08
pos = 1.654220e+00
q.xq2.qsky130_fd_pr__pnp_05v5_w0p68l0p68#collcx = 1.644864e-02
q.xq3.qsky130_fd_pr__pnp_05v5_w0p68l0p68#collcx = 5.121654e-01
q.xq4.qsky130_fd_pr__pnp_05v5_w0p68l0p68#collcx = 5.121654e-01
q.xq8.qsky130_fd_pr__pnp_05v5_w0p68l0p68#collcx = 5.121654e-01
q.xq10.qsky130_fd_pr__pnp_05v5_w0p68l0p68#collcx = 5.121654e-01
q.xq12.qsky130_fd_pr__pnp_05v5_w0p68l0p68#collcx = 5.121654e-01
q.xq14.qsky130_fd_pr__pnp_05v5_w0p68l0p68#collcx = 5.121654e-01
q.xq16.qsky130_fd_pr__pnp_05v5_w0p68l0p68#collcx = 5.121654e-01
q.xq18.qsky130_fd_pr__pnp_05v5_w0p68l0p68#collcx = 5.121654e-01
vb = 1.890360e+00
vdd = 2.500000e+00
vs#branch = -2.35443e-02
vt#branch = 0.000000e+00
xc1.a = 0.000000e+00
xc1.b1 = 0.000000e+00
xc3.a = 2.498811e-08
xc3.b1 = 2.498811e-08
xr1.xsky130_fd_pr__res_xhigh_po_0p69.ra = -6.33429e+02
xr2.xsky130_fd_pr__res_xhigh_po_0p69.ra = 8.945885e-01
xr3.xsky130_fd_pr__res_xhigh_po_0p69.ra = 5.670511e-03
xr4.xsky130_fd_pr__res_xhigh_po_0p69.ra = 2.343126e+01
xr5.xsky130_fd_pr__res_xhigh_po_0p69.ra = -1.45346e+01
xr6.xsky130_fd_pr__res_xhigh_po_0p69.ra = 1.765599e-02
xr7.xsky130_fd_pr__res_xhigh_po_0p69.ra = 2.498811e-08
xr8.xsky130_fd_pr__res_xhigh_po_0p69.ra = 1.673091e+00
xr9.xsky130_fd_pr__res_xhigh_po_0p69.ra = 2.000692e-02
Doing analysis at TEMP = 27.000000 and TNOM = 27.000000


No. of Data Rows : 91
Error: no such vector PM
Note: Starting true gmin stepping
Trying gmin =   1.0000E-03 Note: One successful gmin step
Trying gmin =   1.0000E-04 Note: One successful gmin step
Trying gmin =   1.0000E-05 Note: One successful gmin step
Trying gmin =   1.0000E-06 Note: One successful gmin step
Trying gmin =   1.0000E-07 Note: One successful gmin step
Trying gmin =   3.1623E-08 Note: One successful gmin step
Trying gmin =   5.6234E-09 Note: One successful gmin step
Trying gmin =   5.6234E-10 Note: One successful gmin step
Trying gmin =   5.6234E-11 Note: One successful gmin step
Trying gmin =   5.6234E-12 Note: One successful gmin step
Trying gmin =   1.0000E-12 Note: One successful gmin step
Note: True gmin stepping completed
Note: Starting true gmin stepping
Trying gmin =   1.0000E-03 Note: One successful gmin step
Trying gmin =   1.0000E-04 Note: One successful gmin step
Trying gmin =   1.0000E-05 Note: One successful gmin step
Trying gmin =   1.0000E-06 Note: One successful gmin step
Trying gmin =   1.0000E-07 Warning: Further gmin increment
Trying gmin =   5.6234E-07 Note: One successful gmin step
Trying gmin =   2.3714E-07 Note: One successful gmin step
Trying gmin =   6.4938E-08 Warning: Further gmin increment
Trying gmin =   1.7154E-07 Note: One successful gmin step
Trying gmin =   1.4590E-07 Note: One successful gmin step
Trying gmin =   1.1444E-07 Note: One successful gmin step
Trying gmin =   7.9504E-08 Note: One successful gmin step
Trying gmin =   4.6035E-08 Note: One successful gmin step
Trying gmin =   2.0283E-08 Note: One successful gmin step
Trying gmin =   5.9319E-09 Note: One successful gmin step
Trying gmin =   9.3819E-10 Note: One successful gmin step
Trying gmin =   9.3819E-11 Note: One successful gmin step
Trying gmin =   9.3819E-12 Note: One successful gmin step
Trying gmin =   1.0000E-12 Note: One successful gmin step
Note: True gmin stepping completed
 Reference value :  8.50000e+01Note: Starting true gmin stepping
Trying gmin =   1.0000E-03 Note: One successful gmin step
Trying gmin =   1.0000E-04 Note: One successful gmin step
Trying gmin =   1.0000E-05 Note: One successful gmin step
Trying gmin =   1.0000E-06 Warning: Further gmin increment
Trying gmin =   5.6234E-06 Note: One successful gmin step
Trying gmin =   2.3714E-06 Note: One successful gmin step
Trying gmin =   6.4938E-07 Warning: Further gmin increment
Trying gmin =   1.7154E-06 Note: One successful gmin step
Trying gmin =   1.0554E-06 Note: One successful gmin step
Trying gmin =   5.0937E-07 Warning: Further gmin increment
Trying gmin =   8.7970E-07 Note: One successful gmin step
Trying gmin =   6.6940E-07 Note: One successful gmin step
Trying gmin =   4.4433E-07 Note: One successful gmin step
Trying gmin =   2.4029E-07 Note: One successful gmin step
Trying gmin =   9.5562E-08 Warning: Further gmin increment
Trying gmin =   1.9082E-07 Note: One successful gmin step
Trying gmin =   1.3504E-07 Warning: Further gmin increment
Trying gmin =   1.7502E-07 Note: One successful gmin step
Trying gmin =   1.5373E-07 Note: One successful gmin step
Trying gmin =   1.2656E-07 Warning: Further gmin increment
Trying gmin =   1.4644E-07 Note: One successful gmin step
Trying gmin =   1.3614E-07 Note: One successful gmin step
Trying gmin =   1.2203E-07 Note: One successful gmin step
Trying gmin =   1.0356E-07 Note: One successful gmin step
Trying gmin =   8.0962E-08 Note: One successful gmin step
Trying gmin =   5.5965E-08 Note: One successful gmin step
Trying gmin =   3.2164E-08 Note: One successful gmin step
Trying gmin =   1.4014E-08 Note: One successful gmin step
Trying gmin =   4.0304E-09 Note: One successful gmin step
Trying gmin =   6.2160E-10 Note: One successful gmin step
Trying gmin =   6.2160E-11 Note: One successful gmin step
Trying gmin =   6.2160E-12 Note: One successful gmin step
Trying gmin =   1.0000E-12 Note: One successful gmin step
Note: True gmin stepping completed
 Reference value :  2.80000e+00Note: Starting true gmin stepping
Trying gmin =   1.0000E-03 Note: One successful gmin step
Trying gmin =   1.0000E-04 Note: One successful gmin step
Trying gmin =   1.0000E-05 Note: One successful gmin step
Trying gmin =   1.0000E-06 Note: One successful gmin step
Trying gmin =   1.0000E-07 Note: One successful gmin step
Trying gmin =   1.0000E-08 Warning: Further gmin increment
Trying gmin =   5.6234E-08 Note: One successful gmin step
Trying gmin =   2.3714E-08 Note: One successful gmin step
Trying gmin =   6.4938E-09 Note: One successful gmin step
Trying gmin =   9.3057E-10 Note: One successful gmin step
Trying gmin =   9.3057E-11 Warning: Further gmin increment
Trying gmin =   5.2330E-10 Note: One successful gmin step
Trying gmin =   2.2067E-10 Note: One successful gmin step
Trying gmin =   6.0430E-11 Note: One successful gmin step
Trying gmin =   8.6596E-12 Warning: Further gmin increment
Trying gmin =   3.7180E-11 Note: One successful gmin step
Trying gmin =   1.7943E-11 Note: One successful gmin step
Trying gmin =   8.6596E-12 Note: One successful gmin step
Trying gmin =   2.9033E-12 Note: One successful gmin step
Trying gmin =   1.0000E-12 Note: One successful gmin step
Note: True gmin stepping completed
 Reference value :  1.18000e+00Note: Starting true gmin stepping
Trying gmin =   1.0000E-03 Note: One successful gmin step
Trying gmin =   1.0000E-04 Note: One successful gmin step
Trying gmin =   1.0000E-05 Note: One successful gmin step
Trying gmin =   1.0000E-06 Note: One successful gmin step
Trying gmin =   1.0000E-07 Note: One successful gmin step
Trying gmin =   1.0000E-08 Warning: Further gmin increment
Trying gmin =   5.6234E-08 Note: One successful gmin step
Trying gmin =   2.3714E-08 Note: One successful gmin step
Trying gmin =   6.4938E-09 Note: One successful gmin step
Trying gmin =   9.3057E-10 Note: One successful gmin step
Trying gmin =   9.3057E-11 Warning: Further gmin increment
Trying gmin =   5.2330E-10 Note: One successful gmin step
Trying gmin =   2.2067E-10 Note: One successful gmin step
Trying gmin =   6.0430E-11 Warning: Further gmin increment
Trying gmin =   1.5963E-10 Note: One successful gmin step
Trying gmin =   9.8217E-11 Note: One successful gmin step
Trying gmin =   4.7400E-11 Note: One successful gmin step
Trying gmin =   1.5892E-11 Warning: Further gmin increment
Trying gmin =   3.6069E-11 Note: One successful gmin step
Trying gmin =   2.3941E-11 Note: One successful gmin step
Trying gmin =   1.2947E-11 Warning: Further gmin increment
Trying gmin =   2.0531E-11 Note: One successful gmin step
Trying gmin =   1.6304E-11 Note: One successful gmin step
Trying gmin =   1.1538E-11 Note: One successful gmin step
Trying gmin =   6.8687E-12 Note: One successful gmin step
Trying gmin =   3.1549E-12 Note: One successful gmin step
Trying gmin =   1.0000E-12 Note: One successful gmin step
Note: True gmin stepping completed
 Reference value :  1.16000e+00
Error: measure  pm  (AT) : out of interval
 meas ac pm find ph when vdb(out)=0 failed!

Doing analysis at TEMP = 27.000000 and TNOM = 27.000000


No. of Data Rows : 91
psrr100             =  4.388515e-03
psrr100k            =  4.377608e-03
Doing analysis at TEMP = 27.000000 and TNOM = 27.000000


No. of Data Rows : 86
temp_coeff = 1.042115e+02
Doing analysis at TEMP = 27.000000 and TNOM = 27.000000


No. of Data Rows : 141
vldo_sup_2          =  1.793298e+00
vldo_sup_2_8        =  1.793270e+00
line_reg = 3.500000e-05
Note: No ".plot", ".print", or ".fourier" lines; no simulations run
vin                 =  1.778019e+00
dropout = 1.401900e-02
