 Reference value :  0.00000e+00
No compatibility mode selected!


Circuit: * ldo netlist 

Doing analysis at TEMP = 27.000000 and TNOM = 27.000000


No. of Data Rows : 1
bg_out = 1.192588e+00
inn = 1.222550e+00
inp = 1.222542e+00
l1#branch = 5.551115e-17
ldo_out = 1.793337e+00
m.xm1.msky130_fd_pr__nfet_g5v0d10v5#body = 1.917792e-11
m.xm1.msky130_fd_pr__nfet_g5v0d10v5#dbody = 3.940742e-11
m.xm1.msky130_fd_pr__nfet_g5v0d10v5#sbody = 1.812635e-11
m.xm2.msky130_fd_pr__pfet_g5v0d10v5#body = 2.500000e+00
m.xm2.msky130_fd_pr__pfet_g5v0d10v5#dbody = 2.500000e+00
m.xm2.msky130_fd_pr__pfet_g5v0d10v5#sbody = 2.500000e+00
m.xm3.msky130_fd_pr__pfet_g5v0d10v5#body = 2.500000e+00
m.xm3.msky130_fd_pr__pfet_g5v0d10v5#dbody = 2.500000e+00
m.xm3.msky130_fd_pr__pfet_g5v0d10v5#sbody = 2.500000e+00
m.xm4.msky130_fd_pr__pfet_g5v0d10v5#body = 2.500000e+00
m.xm4.msky130_fd_pr__pfet_g5v0d10v5#dbody = 2.500000e+00
m.xm4.msky130_fd_pr__pfet_g5v0d10v5#sbody = 2.500000e+00
m.xm5.msky130_fd_pr__pfet_g5v0d10v5#body = 2.500000e+00
m.xm5.msky130_fd_pr__pfet_g5v0d10v5#dbody = 2.500000e+00
m.xm5.msky130_fd_pr__pfet_g5v0d10v5#sbody = 2.500000e+00
m.xm6.msky130_fd_pr__nfet_g5v0d10v5#body = 1.107079e-11
m.xm6.msky130_fd_pr__nfet_g5v0d10v5#dbody = 2.767698e-11
m.xm6.msky130_fd_pr__nfet_g5v0d10v5#sbody = 5.535402e-12
m.xm7.msky130_fd_pr__pfet_g5v0d10v5#body = 2.500000e+00
m.xm7.msky130_fd_pr__pfet_g5v0d10v5#dbody = 2.500000e+00
m.xm7.msky130_fd_pr__pfet_g5v0d10v5#sbody = 2.500000e+00
m.xm8.msky130_fd_pr__pfet_g5v0d10v5#body = 2.500000e+00
m.xm8.msky130_fd_pr__pfet_g5v0d10v5#dbody = 2.500000e+00
m.xm8.msky130_fd_pr__pfet_g5v0d10v5#sbody = 2.500000e+00
m.xm9.msky130_fd_pr__nfet_g5v0d10v5#body = 1.982547e-11
m.xm9.msky130_fd_pr__nfet_g5v0d10v5#dbody = 4.188656e-11
m.xm9.msky130_fd_pr__nfet_g5v0d10v5#sbody = 1.758983e-11
m.xm10.msky130_fd_pr__nfet_g5v0d10v5#body = 1.961095e-11
m.xm10.msky130_fd_pr__nfet_g5v0d10v5#dbody = 4.135026e-11
m.xm10.msky130_fd_pr__nfet_g5v0d10v5#sbody = 1.748257e-11
m.xm11.msky130_fd_pr__pfet_g5v0d10v5#body = 2.500000e+00
m.xm11.msky130_fd_pr__pfet_g5v0d10v5#dbody = 2.500000e+00
m.xm11.msky130_fd_pr__pfet_g5v0d10v5#sbody = 2.500000e+00
m.xm12.msky130_fd_pr__pfet_g5v0d10v5#body = 2.500000e+00
m.xm12.msky130_fd_pr__pfet_g5v0d10v5#dbody = 2.500000e+00
m.xm12.msky130_fd_pr__pfet_g5v0d10v5#sbody = 2.500000e+00
m.xm13.msky130_fd_pr__nfet_g5v0d10v5#body = 3.837193e-12
m.xm13.msky130_fd_pr__nfet_g5v0d10v5#dbody = 9.592971e-12
m.xm13.msky130_fd_pr__nfet_g5v0d10v5#sbody = 1.918607e-12
m.xm14.msky130_fd_pr__pfet_g5v0d10v5#body = 2.500000e+00
m.xm14.msky130_fd_pr__pfet_g5v0d10v5#dbody = 2.500000e+00
m.xm14.msky130_fd_pr__pfet_g5v0d10v5#sbody = 2.500000e+00
m.xm15.msky130_fd_pr__nfet_g5v0d10v5#body = 2.356048e-16
m.xm15.msky130_fd_pr__nfet_g5v0d10v5#dbody = 5.889894e-16
m.xm15.msky130_fd_pr__nfet_g5v0d10v5#sbody = 1.178250e-16
m.xm16.msky130_fd_pr__nfet_g5v0d10v5#body = 4.654051e-11
m.xm16.msky130_fd_pr__nfet_g5v0d10v5#dbody = 8.577889e-11
m.xm16.msky130_fd_pr__nfet_g5v0d10v5#sbody = 5.384264e-11
m.xm17.msky130_fd_pr__pfet_g5v0d10v5#body = 2.500000e+00
m.xm17.msky130_fd_pr__pfet_g5v0d10v5#dbody = 2.500000e+00
m.xm17.msky130_fd_pr__pfet_g5v0d10v5#sbody = 2.500000e+00
m.xm18.msky130_fd_pr__nfet_g5v0d10v5#body = 2.008707e-11
m.xm18.msky130_fd_pr__nfet_g5v0d10v5#dbody = 5.009245e-11
m.xm18.msky130_fd_pr__nfet_g5v0d10v5#sbody = 1.004355e-11
m.xm19.msky130_fd_pr__nfet_g5v0d10v5#body = 1.919166e-11
m.xm19.msky130_fd_pr__nfet_g5v0d10v5#dbody = 3.944177e-11
m.xm19.msky130_fd_pr__nfet_g5v0d10v5#sbody = 1.813322e-11
m.xm20.msky130_fd_pr__nfet_g5v0d10v5#body = 1.098794e-11
m.xm20.msky130_fd_pr__nfet_g5v0d10v5#dbody = 2.746983e-11
m.xm20.msky130_fd_pr__nfet_g5v0d10v5#sbody = 5.493980e-12
m.xm22.msky130_fd_pr__nfet_g5v0d10v5#body = 4.271408e-12
m.xm22.msky130_fd_pr__nfet_g5v0d10v5#dbody = 1.067851e-11
m.xm22.msky130_fd_pr__nfet_g5v0d10v5#sbody = 2.135708e-12
m.xm24.msky130_fd_pr__pfet_g5v0d10v5#body = 2.500000e+00
m.xm24.msky130_fd_pr__pfet_g5v0d10v5#dbody = 2.500000e+00
m.xm24.msky130_fd_pr__pfet_g5v0d10v5#sbody = 2.500000e+00
m.xm26.msky130_fd_pr__pfet_g5v0d10v5#body = 2.500000e+00
m.xm26.msky130_fd_pr__pfet_g5v0d10v5#dbody = 2.500000e+00
m.xm26.msky130_fd_pr__pfet_g5v0d10v5#sbody = 2.500000e+00
mir = 1.192393e+00
net1 = 7.251400e-01
net2 = 1.812958e-05
net3 = 7.846919e-01
net4 = 3.411503e-01
net5 = 1.193492e+00
net6 = 8.851011e-01
net7 = 7.846831e-01
net8 = 1.261555e+00
net9 = 1.278717e+00
net10 = 3.068473e-01
net11 = 1.601829e+00
net12 = 1.601829e+00
net13 = 0.000000e+00
out = 1.601829e+00
pos = 1.192747e+00
q.xq2.qsky130_fd_pr__pnp_05v5_w0p68l0p68#collcx = 2.094737e-03
q.xq3.qsky130_fd_pr__pnp_05v5_w0p68l0p68#collcx = 2.637689e-04
q.xq4.qsky130_fd_pr__pnp_05v5_w0p68l0p68#collcx = 2.637689e-04
q.xq8.qsky130_fd_pr__pnp_05v5_w0p68l0p68#collcx = 2.637689e-04
q.xq10.qsky130_fd_pr__pnp_05v5_w0p68l0p68#collcx = 2.637689e-04
q.xq12.qsky130_fd_pr__pnp_05v5_w0p68l0p68#collcx = 2.637689e-04
q.xq14.qsky130_fd_pr__pnp_05v5_w0p68l0p68#collcx = 2.637689e-04
q.xq16.qsky130_fd_pr__pnp_05v5_w0p68l0p68#collcx = 2.637689e-04
q.xq18.qsky130_fd_pr__pnp_05v5_w0p68l0p68#collcx = 2.637689e-04
vb = 8.789068e-01
vdd = 2.500000e+00
vs#branch = -1.72132e-04
vt#branch = 0.000000e+00
xc1.a = 0.000000e+00
xc1.b1 = 0.000000e+00
xc3.a = 1.601829e+00
xc3.b1 = 1.601829e+00
xr1.xsky130_fd_pr__res_xhigh_po_0p69.ra = 7.922317e-01
xr2.xsky130_fd_pr__res_xhigh_po_0p69.ra = 7.922405e-01
xr3.xsky130_fd_pr__res_xhigh_po_0p69.ra = 5.108850e-03
xr4.xsky130_fd_pr__res_xhigh_po_0p69.ra = 7.276782e-01
xr5.xsky130_fd_pr__res_xhigh_po_0p69.ra = 5.108789e-03
xr6.xsky130_fd_pr__res_xhigh_po_0p69.ra = 8.022781e-03
xr7.xsky130_fd_pr__res_xhigh_po_0p69.ra = 1.601829e+00
xr8.xsky130_fd_pr__res_xhigh_po_0p69.ra = 1.206096e+00
xr9.xsky130_fd_pr__res_xhigh_po_0p69.ra = 1.399899e-02
Doing analysis at TEMP = 27.000000 and TNOM = 27.000000


No. of Data Rows : 91
Note: Starting true gmin stepping
Trying gmin =   1.0000E-03 Note: One successful gmin step
Trying gmin =   1.0000E-04 Note: One successful gmin step
Trying gmin =   1.0000E-05 Note: One successful gmin step
Trying gmin =   1.0000E-06 Note: One successful gmin step
Trying gmin =   1.0000E-07 Warning: Further gmin increment
Trying gmin =   5.6234E-07 Note: One successful gmin step
Trying gmin =   2.3714E-07 Note: One successful gmin step
Trying gmin =   6.4938E-08 Note: One successful gmin step
Trying gmin =   9.3057E-09 Warning: Further gmin increment
Trying gmin =   3.9954E-08 Warning: Further gmin increment
Trying gmin =   5.7513E-08 Note: One successful gmin step
Trying gmin =   4.7936E-08 Note: One successful gmin step
Trying gmin =   3.6476E-08 Note: One successful gmin step
Trying gmin =   2.4212E-08 Note: One successful gmin step
Trying gmin =   1.3094E-08 Note: One successful gmin step
Trying gmin =   5.2073E-09 Note: One successful gmin step
Trying gmin =   1.3060E-09 Note: One successful gmin step
Trying gmin =   1.6403E-10 Note: One successful gmin step
Trying gmin =   1.6403E-11 Note: One successful gmin step
Trying gmin =   1.6403E-12 Note: One successful gmin step
Trying gmin =   1.0000E-12 Note: One successful gmin step
Note: True gmin stepping completed
 Reference value :  1.56000e+00Note: Starting true gmin stepping
Trying gmin =   1.0000E-03 Note: One successful gmin step
Trying gmin =   1.0000E-04 Note: One successful gmin step
Trying gmin =   1.0000E-05 Note: One successful gmin step
Trying gmin =   1.0000E-06 Note: One successful gmin step
Trying gmin =   1.0000E-07 Warning: Further gmin increment
Trying gmin =   5.6234E-07 Note: One successful gmin step
Trying gmin =   2.3714E-07 Note: One successful gmin step
Trying gmin =   6.4938E-08 Note: One successful gmin step
Trying gmin =   9.3057E-09 Warning: Further gmin increment
Trying gmin =   3.9954E-08 Note: One successful gmin step
Trying gmin =   3.1340E-08 Note: One successful gmin step
Trying gmin =   2.1772E-08 Note: One successful gmin step
Trying gmin =   1.2606E-08 Note: One successful gmin step
Trying gmin =   5.5543E-09 Note: One successful gmin step
Trying gmin =   1.6244E-09 Note: One successful gmin step
Trying gmin =   2.5692E-10 Note: One successful gmin step
Trying gmin =   2.5692E-11 Note: One successful gmin step
Trying gmin =   2.5692E-12 Note: One successful gmin step
Trying gmin =   1.0000E-12 Note: One successful gmin step
Note: True gmin stepping completed
pm                  =  5.073665e+01
Doing analysis at TEMP = 27.000000 and TNOM = 27.000000


No. of Data Rows : 91
psrr100             =  -8.302283e+01
psrr100k            =  -2.573030e+01
Doing analysis at TEMP = 27.000000 and TNOM = 27.000000


No. of Data Rows : 86
temp_coeff = 1.135631e+02
Doing analysis at TEMP = 27.000000 and TNOM = 27.000000


No. of Data Rows : 141
vldo_sup_2          =  1.793209e+00
vldo_sup_2_8        =  1.793327e+00
line_reg = 1.475000e-04
Note: No ".plot", ".print", or ".fourier" lines; no simulations run
vin                 =  1.764162e+00
dropout = 1.620000e-04
