 Reference value :  0.00000e+00
No compatibility mode selected!


Circuit: * ldo netlist 

Doing analysis at TEMP = 85.000000 and TNOM = 27.000000


No. of Data Rows : 1
bg_out = 1.099874e+00
inn = 1.065975e+00
inp = 1.065879e+00
l1#branch = 0.000000e+00
ldo_out = 1.807858e+00
m.xm1.msky130_fd_pr__nfet_g5v0d10v5#body = 2.897866e-11
m.xm1.msky130_fd_pr__nfet_g5v0d10v5#dbody = 5.713846e-11
m.xm1.msky130_fd_pr__nfet_g5v0d10v5#sbody = 2.979752e-11
m.xm2.msky130_fd_pr__pfet_g5v0d10v5#body = 2.500000e+00
m.xm2.msky130_fd_pr__pfet_g5v0d10v5#dbody = 2.500000e+00
m.xm2.msky130_fd_pr__pfet_g5v0d10v5#sbody = 2.500000e+00
m.xm3.msky130_fd_pr__pfet_g5v0d10v5#body = 2.500000e+00
m.xm3.msky130_fd_pr__pfet_g5v0d10v5#dbody = 2.500000e+00
m.xm3.msky130_fd_pr__pfet_g5v0d10v5#sbody = 2.500000e+00
m.xm4.msky130_fd_pr__pfet_g5v0d10v5#body = 2.500000e+00
m.xm4.msky130_fd_pr__pfet_g5v0d10v5#dbody = 2.500000e+00
m.xm4.msky130_fd_pr__pfet_g5v0d10v5#sbody = 2.500000e+00
m.xm5.msky130_fd_pr__pfet_g5v0d10v5#body = 2.500000e+00
m.xm5.msky130_fd_pr__pfet_g5v0d10v5#dbody = 2.500000e+00
m.xm5.msky130_fd_pr__pfet_g5v0d10v5#sbody = 2.500000e+00
m.xm6.msky130_fd_pr__nfet_g5v0d10v5#body = 2.028408e-11
m.xm6.msky130_fd_pr__nfet_g5v0d10v5#dbody = 5.071009e-11
m.xm6.msky130_fd_pr__nfet_g5v0d10v5#sbody = 1.014215e-11
m.xm7.msky130_fd_pr__pfet_g5v0d10v5#body = 2.500000e+00
m.xm7.msky130_fd_pr__pfet_g5v0d10v5#dbody = 2.500000e+00
m.xm7.msky130_fd_pr__pfet_g5v0d10v5#sbody = 2.500000e+00
m.xm8.msky130_fd_pr__pfet_g5v0d10v5#body = 2.500000e+00
m.xm8.msky130_fd_pr__pfet_g5v0d10v5#dbody = 2.500000e+00
m.xm8.msky130_fd_pr__pfet_g5v0d10v5#sbody = 2.500000e+00
m.xm9.msky130_fd_pr__nfet_g5v0d10v5#body = 2.713497e-11
m.xm9.msky130_fd_pr__nfet_g5v0d10v5#dbody = 5.564800e-11
m.xm9.msky130_fd_pr__nfet_g5v0d10v5#sbody = 2.575689e-11
m.xm10.msky130_fd_pr__nfet_g5v0d10v5#body = 2.682849e-11
m.xm10.msky130_fd_pr__nfet_g5v0d10v5#dbody = 5.488181e-11
m.xm10.msky130_fd_pr__nfet_g5v0d10v5#sbody = 2.560365e-11
m.xm11.msky130_fd_pr__pfet_g5v0d10v5#body = 2.500000e+00
m.xm11.msky130_fd_pr__pfet_g5v0d10v5#dbody = 2.500000e+00
m.xm11.msky130_fd_pr__pfet_g5v0d10v5#sbody = 2.500000e+00
m.xm12.msky130_fd_pr__pfet_g5v0d10v5#body = 2.500000e+00
m.xm12.msky130_fd_pr__pfet_g5v0d10v5#dbody = 2.500000e+00
m.xm12.msky130_fd_pr__pfet_g5v0d10v5#sbody = 2.500000e+00
m.xm13.msky130_fd_pr__nfet_g5v0d10v5#body = 4.451497e-12
m.xm13.msky130_fd_pr__nfet_g5v0d10v5#dbody = 1.112868e-11
m.xm13.msky130_fd_pr__nfet_g5v0d10v5#sbody = 2.225810e-12
m.xm14.msky130_fd_pr__pfet_g5v0d10v5#body = 2.500000e+00
m.xm14.msky130_fd_pr__pfet_g5v0d10v5#dbody = 2.500000e+00
m.xm14.msky130_fd_pr__pfet_g5v0d10v5#sbody = 2.500000e+00
m.xm15.msky130_fd_pr__nfet_g5v0d10v5#body = 6.139282e-14
m.xm15.msky130_fd_pr__nfet_g5v0d10v5#dbody = 1.534800e-13
m.xm15.msky130_fd_pr__nfet_g5v0d10v5#sbody = 3.069841e-14
m.xm16.msky130_fd_pr__nfet_g5v0d10v5#body = 5.518101e-11
m.xm16.msky130_fd_pr__nfet_g5v0d10v5#dbody = 1.006968e-10
m.xm16.msky130_fd_pr__nfet_g5v0d10v5#sbody = 6.484621e-11
m.xm17.msky130_fd_pr__pfet_g5v0d10v5#body = 2.500000e+00
m.xm17.msky130_fd_pr__pfet_g5v0d10v5#dbody = 2.500000e+00
m.xm17.msky130_fd_pr__pfet_g5v0d10v5#sbody = 2.500000e+00
m.xm18.msky130_fd_pr__nfet_g5v0d10v5#body = 1.981279e-11
m.xm18.msky130_fd_pr__nfet_g5v0d10v5#dbody = 4.953014e-11
m.xm18.msky130_fd_pr__nfet_g5v0d10v5#sbody = 9.906473e-12
m.xm19.msky130_fd_pr__nfet_g5v0d10v5#body = 2.913185e-11
m.xm19.msky130_fd_pr__nfet_g5v0d10v5#dbody = 5.752142e-11
m.xm19.msky130_fd_pr__nfet_g5v0d10v5#sbody = 2.987412e-11
m.xm20.msky130_fd_pr__nfet_g5v0d10v5#body = 1.428317e-11
m.xm20.msky130_fd_pr__nfet_g5v0d10v5#dbody = 3.570784e-11
m.xm20.msky130_fd_pr__nfet_g5v0d10v5#sbody = 7.141657e-12
m.xm22.msky130_fd_pr__nfet_g5v0d10v5#body = 1.093866e-11
m.xm22.msky130_fd_pr__nfet_g5v0d10v5#dbody = 2.734654e-11
m.xm22.msky130_fd_pr__nfet_g5v0d10v5#sbody = 5.469430e-12
m.xm24.msky130_fd_pr__pfet_g5v0d10v5#body = 2.500000e+00
m.xm24.msky130_fd_pr__pfet_g5v0d10v5#dbody = 2.500000e+00
m.xm24.msky130_fd_pr__pfet_g5v0d10v5#sbody = 2.500000e+00
m.xm26.msky130_fd_pr__pfet_g5v0d10v5#body = 2.500000e+00
m.xm26.msky130_fd_pr__pfet_g5v0d10v5#dbody = 2.500000e+00
m.xm26.msky130_fd_pr__pfet_g5v0d10v5#sbody = 2.500000e+00
mir = 1.281712e+00
net1 = 6.354034e-01
net2 = 1.185129e-04
net3 = 7.082155e-01
net4 = 1.894948e-01
net5 = 1.293967e+00
net6 = 9.348252e-01
net7 = 7.081185e-01
net8 = 1.366272e+00
net9 = 1.390790e+00
net10 = 1.959512e-01
net11 = 1.424341e+00
net12 = 1.424341e+00
net13 = 0.000000e+00
out = 1.424341e+00
pos = 1.100123e+00
q.xq2.qsky130_fd_pr__pnp_05v5_w0p68l0p68#collcx = 2.686808e-03
q.xq3.qsky130_fd_pr__pnp_05v5_w0p68l0p68#collcx = 3.415659e-04
q.xq4.qsky130_fd_pr__pnp_05v5_w0p68l0p68#collcx = 3.415659e-04
q.xq8.qsky130_fd_pr__pnp_05v5_w0p68l0p68#collcx = 3.415659e-04
q.xq10.qsky130_fd_pr__pnp_05v5_w0p68l0p68#collcx = 3.415659e-04
q.xq12.qsky130_fd_pr__pnp_05v5_w0p68l0p68#collcx = 3.415659e-04
q.xq14.qsky130_fd_pr__pnp_05v5_w0p68l0p68#collcx = 3.415659e-04
q.xq16.qsky130_fd_pr__pnp_05v5_w0p68l0p68#collcx = 3.415659e-04
q.xq18.qsky130_fd_pr__pnp_05v5_w0p68l0p68#collcx = 3.415659e-04
vb = 9.820414e-01
vdd = 2.500000e+00
vs#branch = -1.01756e-02
vt#branch = 0.000000e+00
xc1.a = 0.000000e+00
xc1.b1 = 0.000000e+00
xc3.a = 1.424341e+00
xc3.b1 = 1.424341e+00
xr1.xsky130_fd_pr__res_xhigh_po_0p69.ra = 7.165649e-01
xr2.xsky130_fd_pr__res_xhigh_po_0p69.ra = 7.166619e-01
xr3.xsky130_fd_pr__res_xhigh_po_0p69.ra = 5.203639e-03
xr4.xsky130_fd_pr__res_xhigh_po_0p69.ra = 6.387470e-01
xr5.xsky130_fd_pr__res_xhigh_po_0p69.ra = 5.202884e-03
xr6.xsky130_fd_pr__res_xhigh_po_0p69.ra = 8.936944e-03
xr7.xsky130_fd_pr__res_xhigh_po_0p69.ra = 1.424341e+00
xr8.xsky130_fd_pr__res_xhigh_po_0p69.ra = 1.113703e+00
xr9.xsky130_fd_pr__res_xhigh_po_0p69.ra = 1.401997e-02
Doing analysis at TEMP = 85.000000 and TNOM = 27.000000


No. of Data Rows : 91
Error: no such vector PM
Note: Starting true gmin stepping
Trying gmin =   1.0000E-03 Note: One successful gmin step
Trying gmin =   1.0000E-04 Note: One successful gmin step
Trying gmin =   1.0000E-05 Note: One successful gmin step
Trying gmin =   1.0000E-06 Note: One successful gmin step
Trying gmin =   1.0000E-07 Warning: Further gmin increment
Trying gmin =   5.6234E-07 Note: One successful gmin step
Trying gmin =   2.3714E-07 Note: One successful gmin step
Trying gmin =   6.4938E-08 Warning: Further gmin increment
Trying gmin =   1.7154E-07 Note: One successful gmin step
Trying gmin =   1.0554E-07 Warning: Further gmin increment
Trying gmin =   1.5193E-07 Note: One successful gmin step
Trying gmin =   1.2663E-07 Warning: Further gmin increment
Trying gmin =   1.4517E-07 Note: One successful gmin step
Trying gmin =   1.3558E-07 Warning: Further gmin increment
Trying gmin =   1.4271E-07 Warning: Further gmin increment
Trying gmin =   1.4455E-07 Note: One successful gmin step
Trying gmin =   1.4363E-07 Note: One successful gmin step
Trying gmin =   1.4225E-07 Warning: Further gmin increment
Trying gmin =   1.4328E-07 Warning: Further gmin increment
Trying gmin =   1.4354E-07 Note: One successful gmin step
Trying gmin =   1.4341E-07 Warning: Further gmin increment
Trying gmin =   1.4351E-07 Note: One successful gmin step
Trying gmin =   1.4346E-07 Note: One successful gmin step
Trying gmin =   1.4339E-07 Warning: Further gmin increment
Trying gmin =   1.4344E-07 Note: One successful gmin step
Trying gmin =   1.4341E-07 Warning: Further gmin increment
Trying gmin =   1.4343E-07 Note: One successful gmin step
Trying gmin =   1.4342E-07 Note: One successful gmin step
Trying gmin =   1.4341E-07 Warning: Further gmin increment
Trying gmin =   1.4342E-07 Warning: Last gmin step failed
Warning: True gmin stepping failed
Note: Starting dynamic gmin stepping
Trying gmin =   1.0000E-03 Note: One successful gmin step
Trying gmin =   1.0000E-04 Note: One successful gmin step
Trying gmin =   1.0000E-05 Note: One successful gmin step
Trying gmin =   1.0000E-06 Warning: Further gmin increment
Trying gmin =   5.6234E-06 Note: One successful gmin step
Trying gmin =   2.3714E-06 Note: One successful gmin step
Trying gmin =   6.4938E-07 Warning: Further gmin increment
Trying gmin =   1.7154E-06 Warning: Further gmin increment
Trying gmin =   2.1870E-06 Note: One successful gmin step
Trying gmin =   1.9369E-06 Note: One successful gmin step
Trying gmin =   1.7154E-06 Note: One successful gmin step
Trying gmin =   1.4298E-06 Note: One successful gmin step
Trying gmin =   1.0880E-06 Note: One successful gmin step
Trying gmin =   7.2218E-07 Note: One successful gmin step
Trying gmin =   3.9055E-07 Note: One successful gmin step
Trying gmin =   1.5532E-07 Note: One successful gmin step
Trying gmin =   3.8953E-08 Note: One successful gmin step
Trying gmin =   4.8925E-09 Note: One successful gmin step
Trying gmin =   4.8925E-10 Note: One successful gmin step
Trying gmin =   4.8925E-11 Note: One successful gmin step
Trying gmin =   4.8925E-12 Note: One successful gmin step
Trying gmin =   1.0000E-12 Note: One successful gmin step
Note: Dynamic gmin stepping completed
 Reference value :  2.80000e+00Note: Starting true gmin stepping
Trying gmin =   1.0000E-03 Note: One successful gmin step
Trying gmin =   1.0000E-04 Note: One successful gmin step
Trying gmin =   1.0000E-05 Note: One successful gmin step
Trying gmin =   1.0000E-06 Note: One successful gmin step
Trying gmin =   1.0000E-07 Note: One successful gmin step
Trying gmin =   1.0000E-08 Note: One successful gmin step
Trying gmin =   1.0000E-09 Warning: Further gmin increment
Trying gmin =   5.6234E-09 Warning: Further gmin increment
Trying gmin =   8.6596E-09 Note: One successful gmin step
Trying gmin =   6.9783E-09 Note: One successful gmin step
Trying gmin =   5.0481E-09 Note: One successful gmin step
Trying gmin =   3.1059E-09 Note: One successful gmin step
Trying gmin =   1.4989E-09 Warning: Further gmin increment
Trying gmin =   2.5887E-09 Note: One successful gmin step
Trying gmin =   1.9699E-09 Note: One successful gmin step
Trying gmin =   1.3075E-09 Note: One successful gmin step
Trying gmin =   7.0711E-10 Note: One successful gmin step
Trying gmin =   2.8121E-10 Note: One successful gmin step
Trying gmin =   7.0527E-11 Note: One successful gmin step
Trying gmin =   8.8581E-12 Note: One successful gmin step
Trying gmin =   1.0000E-12 Note: One successful gmin step
Note: True gmin stepping completed
 Reference value :  1.26000e+00Note: Starting true gmin stepping
Trying gmin =   1.0000E-03 Note: One successful gmin step
Trying gmin =   1.0000E-04 Note: One successful gmin step
Trying gmin =   1.0000E-05 Note: One successful gmin step
Trying gmin =   1.0000E-06 Note: One successful gmin step
Trying gmin =   1.0000E-07 Note: One successful gmin step
Trying gmin =   1.0000E-08 Note: One successful gmin step
Trying gmin =   1.0000E-09 Warning: Further gmin increment
Trying gmin =   5.6234E-09 Warning: Further gmin increment
Trying gmin =   8.6596E-09 Note: One successful gmin step
Trying gmin =   6.9783E-09 Note: One successful gmin step
Trying gmin =   5.0481E-09 Note: One successful gmin step
Trying gmin =   3.1059E-09 Note: One successful gmin step
Trying gmin =   1.4989E-09 Warning: Further gmin increment
Trying gmin =   2.5887E-09 Note: One successful gmin step
Trying gmin =   1.9699E-09 Note: One successful gmin step
Trying gmin =   1.3075E-09 Note: One successful gmin step
Trying gmin =   7.0711E-10 Note: One successful gmin step
Trying gmin =   2.8121E-10 Note: One successful gmin step
Trying gmin =   7.0527E-11 Note: One successful gmin step
Trying gmin =   8.8581E-12 Note: One successful gmin step
Trying gmin =   1.0000E-12 Note: One successful gmin step
Note: True gmin stepping completed

Error: measure  pm  (AT) : out of interval
 meas ac pm find p when vdb(ldo_out)=0 failed!

Doing analysis at TEMP = 85.000000 and TNOM = 27.000000


No. of Data Rows : 91
psrr100             =  -5.388535e+01
psrr100k            =  -2.398380e+01
Doing analysis at TEMP = 85.000000 and TNOM = 27.000000


No. of Data Rows : 86
temp_coeff = 2.824870e+01
Doing analysis at TEMP = 85.000000 and TNOM = 27.000000


No. of Data Rows : 141
vldo_sup_2          =  1.806148e+00
vldo_sup_2_8        =  1.808354e+00
line_reg = 2.757500e-03
Note: No ".plot", ".print", or ".fourier" lines; no simulations run
vin                 =  1.787155e+00
dropout = 2.315500e-02
