 Reference value :  0.00000e+00
No compatibility mode selected!


Circuit: * ldo netlist 

Doing analysis at TEMP = 85.000000 and TNOM = 27.000000


No. of Data Rows : 1
bg_out = 1.197119e+00
inn = 1.143233e+00
inp = 1.143201e+00
l1#branch = 0.000000e+00
ldo_out = 1.800553e+00
m.xm1.msky130_fd_pr__nfet_g5v0d10v5#body = 2.854659e-11
m.xm1.msky130_fd_pr__nfet_g5v0d10v5#dbody = 5.381770e-11
m.xm1.msky130_fd_pr__nfet_g5v0d10v5#sbody = 3.182207e-11
m.xm2.msky130_fd_pr__pfet_g5v0d10v5#body = 2.300000e+00
m.xm2.msky130_fd_pr__pfet_g5v0d10v5#dbody = 2.300000e+00
m.xm2.msky130_fd_pr__pfet_g5v0d10v5#sbody = 2.300000e+00
m.xm3.msky130_fd_pr__pfet_g5v0d10v5#body = 2.300000e+00
m.xm3.msky130_fd_pr__pfet_g5v0d10v5#dbody = 2.300000e+00
m.xm3.msky130_fd_pr__pfet_g5v0d10v5#sbody = 2.300000e+00
m.xm4.msky130_fd_pr__pfet_g5v0d10v5#body = 2.300000e+00
m.xm4.msky130_fd_pr__pfet_g5v0d10v5#dbody = 2.300000e+00
m.xm4.msky130_fd_pr__pfet_g5v0d10v5#sbody = 2.300000e+00
m.xm5.msky130_fd_pr__pfet_g5v0d10v5#body = 2.300000e+00
m.xm5.msky130_fd_pr__pfet_g5v0d10v5#dbody = 2.300000e+00
m.xm5.msky130_fd_pr__pfet_g5v0d10v5#sbody = 2.300000e+00
m.xm6.msky130_fd_pr__nfet_g5v0d10v5#body = 1.973716e-11
m.xm6.msky130_fd_pr__nfet_g5v0d10v5#dbody = 4.934279e-11
m.xm6.msky130_fd_pr__nfet_g5v0d10v5#sbody = 9.868687e-12
m.xm7.msky130_fd_pr__pfet_g5v0d10v5#body = 2.300000e+00
m.xm7.msky130_fd_pr__pfet_g5v0d10v5#dbody = 2.300000e+00
m.xm7.msky130_fd_pr__pfet_g5v0d10v5#sbody = 2.300000e+00
m.xm8.msky130_fd_pr__pfet_g5v0d10v5#body = 2.300000e+00
m.xm8.msky130_fd_pr__pfet_g5v0d10v5#dbody = 2.300000e+00
m.xm8.msky130_fd_pr__pfet_g5v0d10v5#sbody = 2.300000e+00
m.xm9.msky130_fd_pr__nfet_g5v0d10v5#body = 2.670862e-11
m.xm9.msky130_fd_pr__nfet_g5v0d10v5#dbody = 5.195788e-11
m.xm9.msky130_fd_pr__nfet_g5v0d10v5#sbody = 2.816797e-11
m.xm10.msky130_fd_pr__nfet_g5v0d10v5#body = 2.662086e-11
m.xm10.msky130_fd_pr__nfet_g5v0d10v5#dbody = 5.173849e-11
m.xm10.msky130_fd_pr__nfet_g5v0d10v5#sbody = 2.812409e-11
m.xm11.msky130_fd_pr__pfet_g5v0d10v5#body = 2.300000e+00
m.xm11.msky130_fd_pr__pfet_g5v0d10v5#dbody = 2.300000e+00
m.xm11.msky130_fd_pr__pfet_g5v0d10v5#sbody = 2.300000e+00
m.xm12.msky130_fd_pr__pfet_g5v0d10v5#body = 2.300000e+00
m.xm12.msky130_fd_pr__pfet_g5v0d10v5#dbody = 2.300000e+00
m.xm12.msky130_fd_pr__pfet_g5v0d10v5#sbody = 2.300000e+00
m.xm13.msky130_fd_pr__nfet_g5v0d10v5#body = 5.759267e-12
m.xm13.msky130_fd_pr__nfet_g5v0d10v5#dbody = 1.439810e-11
m.xm13.msky130_fd_pr__nfet_g5v0d10v5#sbody = 2.879699e-12
m.xm14.msky130_fd_pr__pfet_g5v0d10v5#body = 2.300000e+00
m.xm14.msky130_fd_pr__pfet_g5v0d10v5#dbody = 2.300000e+00
m.xm14.msky130_fd_pr__pfet_g5v0d10v5#sbody = 2.300000e+00
m.xm15.msky130_fd_pr__nfet_g5v0d10v5#body = 1.315648e-14
m.xm15.msky130_fd_pr__nfet_g5v0d10v5#dbody = 3.289039e-14
m.xm15.msky130_fd_pr__nfet_g5v0d10v5#sbody = 6.579041e-15
m.xm16.msky130_fd_pr__nfet_g5v0d10v5#body = 5.359488e-11
m.xm16.msky130_fd_pr__nfet_g5v0d10v5#dbody = 9.485191e-11
m.xm16.msky130_fd_pr__nfet_g5v0d10v5#sbody = 6.593274e-11
m.xm17.msky130_fd_pr__pfet_g5v0d10v5#body = 2.300000e+00
m.xm17.msky130_fd_pr__pfet_g5v0d10v5#dbody = 2.300000e+00
m.xm17.msky130_fd_pr__pfet_g5v0d10v5#sbody = 2.300000e+00
m.xm18.msky130_fd_pr__nfet_g5v0d10v5#body = 1.243602e-11
m.xm18.msky130_fd_pr__nfet_g5v0d10v5#dbody = 3.108997e-11
m.xm18.msky130_fd_pr__nfet_g5v0d10v5#sbody = 6.218080e-12
m.xm19.msky130_fd_pr__nfet_g5v0d10v5#body = 2.859166e-11
m.xm19.msky130_fd_pr__nfet_g5v0d10v5#dbody = 5.393038e-11
m.xm19.msky130_fd_pr__nfet_g5v0d10v5#sbody = 3.184460e-11
m.xm20.msky130_fd_pr__nfet_g5v0d10v5#body = 1.341191e-11
m.xm20.msky130_fd_pr__nfet_g5v0d10v5#dbody = 3.352970e-11
m.xm20.msky130_fd_pr__nfet_g5v0d10v5#sbody = 6.706027e-12
m.xm22.msky130_fd_pr__nfet_g5v0d10v5#body = 1.206926e-11
m.xm22.msky130_fd_pr__nfet_g5v0d10v5#dbody = 3.017303e-11
m.xm22.msky130_fd_pr__nfet_g5v0d10v5#sbody = 6.034732e-12
m.xm24.msky130_fd_pr__pfet_g5v0d10v5#body = 2.300000e+00
m.xm24.msky130_fd_pr__pfet_g5v0d10v5#dbody = 2.300000e+00
m.xm24.msky130_fd_pr__pfet_g5v0d10v5#sbody = 2.300000e+00
m.xm26.msky130_fd_pr__pfet_g5v0d10v5#body = 2.300000e+00
m.xm26.msky130_fd_pr__pfet_g5v0d10v5#dbody = 2.300000e+00
m.xm26.msky130_fd_pr__pfet_g5v0d10v5#sbody = 2.300000e+00
mir = 1.159598e+00
net1 = 6.284806e-01
net2 = 2.540080e-05
net3 = 7.017274e-01
net4 = 2.798652e-01
net5 = 1.163203e+00
net6 = 8.931461e-01
net7 = 7.016946e-01
net8 = 1.246766e+00
net9 = 1.253786e+00
net10 = 3.022222e-01
net11 = 8.363441e-01
net12 = 8.363441e-01
net13 = 0.000000e+00
out = 8.363441e-01
pos = 1.197199e+00
q.xq2.qsky130_fd_pr__pnp_05v5_w0p68l0p68#collcx = 2.838223e-03
q.xq3.qsky130_fd_pr__pnp_05v5_w0p68l0p68#collcx = 3.580357e-04
q.xq4.qsky130_fd_pr__pnp_05v5_w0p68l0p68#collcx = 3.580357e-04
q.xq8.qsky130_fd_pr__pnp_05v5_w0p68l0p68#collcx = 3.580357e-04
q.xq10.qsky130_fd_pr__pnp_05v5_w0p68l0p68#collcx = 3.580357e-04
q.xq12.qsky130_fd_pr__pnp_05v5_w0p68l0p68#collcx = 3.580357e-04
q.xq14.qsky130_fd_pr__pnp_05v5_w0p68l0p68#collcx = 3.580357e-04
q.xq16.qsky130_fd_pr__pnp_05v5_w0p68l0p68#collcx = 3.580357e-04
q.xq18.qsky130_fd_pr__pnp_05v5_w0p68l0p68#collcx = 3.580357e-04
vb = 9.144155e-01
vdd = 2.300000e+00
vs#branch = -1.00162e-01
vt#branch = 0.000000e+00
xc1.a = 0.000000e+00
xc1.b1 = 0.000000e+00
xc3.a = 8.363441e-01
xc3.b1 = 8.363441e-01
xr1.xsky130_fd_pr__res_xhigh_po_0p69.ra = 7.099240e-01
xr2.xsky130_fd_pr__res_xhigh_po_0p69.ra = 7.099568e-01
xr3.xsky130_fd_pr__res_xhigh_po_0p69.ra = 4.908864e-03
xr4.xsky130_fd_pr__res_xhigh_po_0p69.ra = 6.318472e-01
xr5.xsky130_fd_pr__res_xhigh_po_0p69.ra = 4.908622e-03
xr6.xsky130_fd_pr__res_xhigh_po_0p69.ra = 8.715430e-03
xr7.xsky130_fd_pr__res_xhigh_po_0p69.ra = 8.363441e-01
xr8.xsky130_fd_pr__res_xhigh_po_0p69.ra = 1.211692e+00
xr9.xsky130_fd_pr__res_xhigh_po_0p69.ra = 1.520019e-02
Doing analysis at TEMP = 85.000000 and TNOM = 27.000000


No. of Data Rows : 91
Note: Starting true gmin stepping
Trying gmin =   1.0000E-03 Note: One successful gmin step
Trying gmin =   1.0000E-04 Note: One successful gmin step
Trying gmin =   1.0000E-05 Note: One successful gmin step
Trying gmin =   1.0000E-06 Note: One successful gmin step
Trying gmin =   1.0000E-07 Note: One successful gmin step
Trying gmin =   1.0000E-08 Note: One successful gmin step
Trying gmin =   1.0000E-09 Note: One successful gmin step
Trying gmin =   3.1623E-10 Note: One successful gmin step
Trying gmin =   5.6234E-11 Note: One successful gmin step
Trying gmin =   5.6234E-12 Note: One successful gmin step
Trying gmin =   1.0000E-12 Note: One successful gmin step
Note: True gmin stepping completed
 Reference value :  1.14000e+00Note: Starting true gmin stepping
Trying gmin =   1.0000E-03 Note: One successful gmin step
Trying gmin =   1.0000E-04 Note: One successful gmin step
Trying gmin =   1.0000E-05 Note: One successful gmin step
Trying gmin =   1.0000E-06 Note: One successful gmin step
Trying gmin =   1.0000E-07 Note: One successful gmin step
Trying gmin =   1.0000E-08 Note: One successful gmin step
Trying gmin =   1.0000E-09 Warning: Further gmin increment
Trying gmin =   5.6234E-09 Note: One successful gmin step
Trying gmin =   3.1623E-09 Warning: Further gmin increment
Trying gmin =   4.8697E-09 Note: One successful gmin step
Trying gmin =   3.9242E-09 Note: One successful gmin step
Trying gmin =   2.8387E-09 Note: One successful gmin step
Trying gmin =   1.7466E-09 Note: One successful gmin step
Trying gmin =   8.4291E-10 Note: One successful gmin step
Trying gmin =   2.8260E-10 Note: One successful gmin step
Trying gmin =   5.4860E-11 Note: One successful gmin step
Trying gmin =   5.4860E-12 Note: One successful gmin step
Trying gmin =   1.0000E-12 Note: One successful gmin step
Note: True gmin stepping completed
 Reference value :  4.00000e-01pm                  =  1.409473e+02
Doing analysis at TEMP = 85.000000 and TNOM = 27.000000


No. of Data Rows : 91
psrr100             =  -5.038523e+01
psrr100k            =  -2.234823e+01
Doing analysis at TEMP = 85.000000 and TNOM = 27.000000


No. of Data Rows : 86
temp_coeff = 9.731552e+01
Doing analysis at TEMP = 85.000000 and TNOM = 27.000000


No. of Data Rows : 141
vldo_sup_2          =  1.798808e+00
vldo_sup_2_8        =  1.802356e+00
line_reg = 4.435000e-03
Note: No ".plot", ".print", or ".fourier" lines; no simulations run
vin                 =  1.948152e+00
dropout = 1.841520e-01
