 Reference value :  0.00000e+00
No compatibility mode selected!


Circuit: * ldo netlist 

Doing analysis at TEMP = 85.000000 and TNOM = 27.000000


No. of Data Rows : 1
bg_out = 1.102549e+00
inn = 1.064762e+00
inp = 1.064711e+00
l1#branch = 0.000000e+00
ldo_out = 1.813017e+00
m.xm1.msky130_fd_pr__nfet_g5v0d10v5#body = 2.682503e-11
m.xm1.msky130_fd_pr__nfet_g5v0d10v5#dbody = 4.991687e-11
m.xm1.msky130_fd_pr__nfet_g5v0d10v5#sbody = 3.055823e-11
m.xm2.msky130_fd_pr__pfet_g5v0d10v5#body = 2.300000e+00
m.xm2.msky130_fd_pr__pfet_g5v0d10v5#dbody = 2.300000e+00
m.xm2.msky130_fd_pr__pfet_g5v0d10v5#sbody = 2.300000e+00
m.xm3.msky130_fd_pr__pfet_g5v0d10v5#body = 2.300000e+00
m.xm3.msky130_fd_pr__pfet_g5v0d10v5#dbody = 2.300000e+00
m.xm3.msky130_fd_pr__pfet_g5v0d10v5#sbody = 2.300000e+00
m.xm4.msky130_fd_pr__pfet_g5v0d10v5#body = 2.300000e+00
m.xm4.msky130_fd_pr__pfet_g5v0d10v5#dbody = 2.300000e+00
m.xm4.msky130_fd_pr__pfet_g5v0d10v5#sbody = 2.300000e+00
m.xm5.msky130_fd_pr__pfet_g5v0d10v5#body = 2.300000e+00
m.xm5.msky130_fd_pr__pfet_g5v0d10v5#dbody = 2.300000e+00
m.xm5.msky130_fd_pr__pfet_g5v0d10v5#sbody = 2.300000e+00
m.xm6.msky130_fd_pr__nfet_g5v0d10v5#body = 1.919650e-11
m.xm6.msky130_fd_pr__nfet_g5v0d10v5#dbody = 4.799112e-11
m.xm6.msky130_fd_pr__nfet_g5v0d10v5#sbody = 9.598370e-12
m.xm7.msky130_fd_pr__pfet_g5v0d10v5#body = 2.300000e+00
m.xm7.msky130_fd_pr__pfet_g5v0d10v5#dbody = 2.300000e+00
m.xm7.msky130_fd_pr__pfet_g5v0d10v5#sbody = 2.300000e+00
m.xm8.msky130_fd_pr__pfet_g5v0d10v5#body = 2.300000e+00
m.xm8.msky130_fd_pr__pfet_g5v0d10v5#dbody = 2.300000e+00
m.xm8.msky130_fd_pr__pfet_g5v0d10v5#sbody = 2.300000e+00
m.xm9.msky130_fd_pr__nfet_g5v0d10v5#body = 2.502194e-11
m.xm9.msky130_fd_pr__nfet_g5v0d10v5#dbody = 4.835981e-11
m.xm9.msky130_fd_pr__nfet_g5v0d10v5#sbody = 2.670600e-11
m.xm10.msky130_fd_pr__nfet_g5v0d10v5#body = 2.474218e-11
m.xm10.msky130_fd_pr__nfet_g5v0d10v5#dbody = 4.766042e-11
m.xm10.msky130_fd_pr__nfet_g5v0d10v5#sbody = 2.656612e-11
m.xm11.msky130_fd_pr__pfet_g5v0d10v5#body = 2.300000e+00
m.xm11.msky130_fd_pr__pfet_g5v0d10v5#dbody = 2.300000e+00
m.xm11.msky130_fd_pr__pfet_g5v0d10v5#sbody = 2.300000e+00
m.xm12.msky130_fd_pr__pfet_g5v0d10v5#body = 2.300000e+00
m.xm12.msky130_fd_pr__pfet_g5v0d10v5#dbody = 2.300000e+00
m.xm12.msky130_fd_pr__pfet_g5v0d10v5#sbody = 2.300000e+00
m.xm13.msky130_fd_pr__nfet_g5v0d10v5#body = 5.450128e-12
m.xm13.msky130_fd_pr__nfet_g5v0d10v5#dbody = 1.362525e-11
m.xm13.msky130_fd_pr__nfet_g5v0d10v5#sbody = 2.725135e-12
m.xm14.msky130_fd_pr__pfet_g5v0d10v5#body = 2.300000e+00
m.xm14.msky130_fd_pr__pfet_g5v0d10v5#dbody = 2.300000e+00
m.xm14.msky130_fd_pr__pfet_g5v0d10v5#sbody = 2.300000e+00
m.xm15.msky130_fd_pr__nfet_g5v0d10v5#body = 9.963685e-15
m.xm15.msky130_fd_pr__nfet_g5v0d10v5#dbody = 2.490851e-14
m.xm15.msky130_fd_pr__nfet_g5v0d10v5#sbody = 4.982548e-15
m.xm16.msky130_fd_pr__nfet_g5v0d10v5#body = 5.253990e-11
m.xm16.msky130_fd_pr__nfet_g5v0d10v5#dbody = 9.425032e-11
m.xm16.msky130_fd_pr__nfet_g5v0d10v5#sbody = 6.336937e-11
m.xm17.msky130_fd_pr__pfet_g5v0d10v5#body = 2.300000e+00
m.xm17.msky130_fd_pr__pfet_g5v0d10v5#dbody = 2.300000e+00
m.xm17.msky130_fd_pr__pfet_g5v0d10v5#sbody = 2.300000e+00
m.xm18.msky130_fd_pr__nfet_g5v0d10v5#body = 2.101087e-11
m.xm18.msky130_fd_pr__nfet_g5v0d10v5#dbody = 5.250845e-11
m.xm18.msky130_fd_pr__nfet_g5v0d10v5#sbody = 1.050552e-11
m.xm19.msky130_fd_pr__nfet_g5v0d10v5#body = 2.689290e-11
m.xm19.msky130_fd_pr__nfet_g5v0d10v5#dbody = 5.008655e-11
m.xm19.msky130_fd_pr__nfet_g5v0d10v5#sbody = 3.059216e-11
m.xm20.msky130_fd_pr__nfet_g5v0d10v5#body = 1.246905e-11
m.xm20.msky130_fd_pr__nfet_g5v0d10v5#dbody = 3.117253e-11
m.xm20.msky130_fd_pr__nfet_g5v0d10v5#sbody = 6.234603e-12
m.xm22.msky130_fd_pr__nfet_g5v0d10v5#body = 1.186738e-11
m.xm22.msky130_fd_pr__nfet_g5v0d10v5#dbody = 2.966833e-11
m.xm22.msky130_fd_pr__nfet_g5v0d10v5#sbody = 5.933804e-12
m.xm24.msky130_fd_pr__pfet_g5v0d10v5#body = 2.300000e+00
m.xm24.msky130_fd_pr__pfet_g5v0d10v5#dbody = 2.300000e+00
m.xm24.msky130_fd_pr__pfet_g5v0d10v5#sbody = 2.300000e+00
m.xm26.msky130_fd_pr__pfet_g5v0d10v5#body = 2.300000e+00
m.xm26.msky130_fd_pr__pfet_g5v0d10v5#dbody = 2.300000e+00
m.xm26.msky130_fd_pr__pfet_g5v0d10v5#sbody = 2.300000e+00
mir = 1.040959e+00
net1 = 6.313324e-01
net2 = 1.927632e-05
net3 = 7.051859e-01
net4 = 2.667509e-01
net5 = 1.046389e+00
net6 = 8.528566e-01
net7 = 7.051341e-01
net8 = 1.124180e+00
net9 = 1.146561e+00
net10 = 2.804705e-01
net11 = 1.524550e+00
net12 = 1.524550e+00
net13 = 0.000000e+00
out = 1.524550e+00
pos = 1.102811e+00
q.xq2.qsky130_fd_pr__pnp_05v5_w0p68l0p68#collcx = 3.101549e-03
q.xq3.qsky130_fd_pr__pnp_05v5_w0p68l0p68#collcx = 3.916441e-04
q.xq4.qsky130_fd_pr__pnp_05v5_w0p68l0p68#collcx = 3.916441e-04
q.xq8.qsky130_fd_pr__pnp_05v5_w0p68l0p68#collcx = 3.916441e-04
q.xq10.qsky130_fd_pr__pnp_05v5_w0p68l0p68#collcx = 3.916441e-04
q.xq12.qsky130_fd_pr__pnp_05v5_w0p68l0p68#collcx = 3.916441e-04
q.xq14.qsky130_fd_pr__pnp_05v5_w0p68l0p68#collcx = 3.916441e-04
q.xq16.qsky130_fd_pr__pnp_05v5_w0p68l0p68#collcx = 3.916441e-04
q.xq18.qsky130_fd_pr__pnp_05v5_w0p68l0p68#collcx = 3.916441e-04
vb = 8.419499e-01
vdd = 2.300000e+00
vs#branch = -1.96461e-04
vt#branch = 0.000000e+00
xc1.a = 0.000000e+00
xc1.b1 = 0.000000e+00
xc3.a = 1.524550e+00
xc3.b1 = 1.524550e+00
xr1.xsky130_fd_pr__res_xhigh_po_0p69.ra = 7.083839e-01
xr2.xsky130_fd_pr__res_xhigh_po_0p69.ra = 7.084357e-01
xr3.xsky130_fd_pr__res_xhigh_po_0p69.ra = 1.987451e-03
xr4.xsky130_fd_pr__res_xhigh_po_0p69.ra = 6.326322e-01
xr5.xsky130_fd_pr__res_xhigh_po_0p69.ra = 1.987297e-03
xr6.xsky130_fd_pr__res_xhigh_po_0p69.ra = 3.438119e-03
xr7.xsky130_fd_pr__res_xhigh_po_0p69.ra = 1.524550e+00
xr8.xsky130_fd_pr__res_xhigh_po_0p69.ra = 1.108032e+00
xr9.xsky130_fd_pr__res_xhigh_po_0p69.ra = 5.390141e-03
Doing analysis at TEMP = 85.000000 and TNOM = 27.000000


No. of Data Rows : 91
Note: Starting true gmin stepping
Trying gmin =   1.0000E-03 Note: One successful gmin step
Trying gmin =   1.0000E-04 Note: One successful gmin step
Trying gmin =   1.0000E-05 Note: One successful gmin step
Trying gmin =   1.0000E-06 Note: One successful gmin step
Trying gmin =   1.0000E-07 Note: One successful gmin step
Trying gmin =   1.0000E-08 Warning: Further gmin increment
Trying gmin =   5.6234E-08 Note: One successful gmin step
Trying gmin =   2.3714E-08 Warning: Further gmin increment
Trying gmin =   4.5316E-08 Note: One successful gmin step
Trying gmin =   3.2781E-08 Note: One successful gmin step
Trying gmin =   2.0169E-08 Note: One successful gmin step
Trying gmin =   9.7338E-09 Note: One successful gmin step
Trying gmin =   3.2634E-09 Note: One successful gmin step
Trying gmin =   6.3352E-10 Note: One successful gmin step
Trying gmin =   6.3352E-11 Note: One successful gmin step
Trying gmin =   6.3352E-12 Note: One successful gmin step
Trying gmin =   1.0000E-12 Note: One successful gmin step
Note: True gmin stepping completed
 Reference value :  1.42000e+00Note: Starting true gmin stepping
Trying gmin =   1.0000E-03 Note: One successful gmin step
Trying gmin =   1.0000E-04 Note: One successful gmin step
Trying gmin =   1.0000E-05 Note: One successful gmin step
Trying gmin =   1.0000E-06 Note: One successful gmin step
Trying gmin =   1.0000E-07 Note: One successful gmin step
Trying gmin =   1.0000E-08 Warning: Further gmin increment
Trying gmin =   5.6234E-08 Note: One successful gmin step
Trying gmin =   2.3714E-08 Warning: Further gmin increment
Trying gmin =   4.5316E-08 Note: One successful gmin step
Trying gmin =   3.2781E-08 Note: One successful gmin step
Trying gmin =   2.0169E-08 Note: One successful gmin step
Trying gmin =   9.7338E-09 Note: One successful gmin step
Trying gmin =   3.2634E-09 Note: One successful gmin step
Trying gmin =   6.3352E-10 Note: One successful gmin step
Trying gmin =   6.3352E-11 Note: One successful gmin step
Trying gmin =   6.3352E-12 Note: One successful gmin step
Trying gmin =   1.0000E-12 Note: One successful gmin step
Note: True gmin stepping completed
 Reference value :  8.00000e-02pm                  =  6.264923e+01
Doing analysis at TEMP = 85.000000 and TNOM = 27.000000


No. of Data Rows : 91
psrr100             =  -5.227696e+01
psrr100k            =  -2.523509e+01
Doing analysis at TEMP = 85.000000 and TNOM = 27.000000


No. of Data Rows : 86
temp_coeff = 7.117699e+01
Doing analysis at TEMP = 85.000000 and TNOM = 27.000000


No. of Data Rows : 141
vldo_sup_2          =  1.811927e+00
vldo_sup_2_8        =  1.813847e+00
line_reg = 2.400000e-03
Note: No ".plot", ".print", or ".fourier" lines; no simulations run
vin                 =  1.764178e+00
dropout = 1.780000e-04
