 Reference value :  0.00000e+00
No compatibility mode selected!


Circuit: * ldo netlist 

Doing analysis at TEMP = 27.000000 and TNOM = 27.000000


No. of Data Rows : 1
bg_out = 1.095896e+00
inn = 1.139598e+00
inp = 1.139568e+00
l1#branch = 0.000000e+00
ldo_out = 1.800910e+00
m.xm1.msky130_fd_pr__nfet_g5v0d10v5#body = 1.894073e-11
m.xm1.msky130_fd_pr__nfet_g5v0d10v5#dbody = 4.163643e-11
m.xm1.msky130_fd_pr__nfet_g5v0d10v5#sbody = 1.518575e-11
m.xm2.msky130_fd_pr__pfet_g5v0d10v5#body = 2.500000e+00
m.xm2.msky130_fd_pr__pfet_g5v0d10v5#dbody = 2.500000e+00
m.xm2.msky130_fd_pr__pfet_g5v0d10v5#sbody = 2.500000e+00
m.xm3.msky130_fd_pr__pfet_g5v0d10v5#body = 2.500000e+00
m.xm3.msky130_fd_pr__pfet_g5v0d10v5#dbody = 2.500000e+00
m.xm3.msky130_fd_pr__pfet_g5v0d10v5#sbody = 2.500000e+00
m.xm4.msky130_fd_pr__pfet_g5v0d10v5#body = 2.500000e+00
m.xm4.msky130_fd_pr__pfet_g5v0d10v5#dbody = 2.500000e+00
m.xm4.msky130_fd_pr__pfet_g5v0d10v5#sbody = 2.500000e+00
m.xm5.msky130_fd_pr__pfet_g5v0d10v5#body = 2.500000e+00
m.xm5.msky130_fd_pr__pfet_g5v0d10v5#dbody = 2.500000e+00
m.xm5.msky130_fd_pr__pfet_g5v0d10v5#sbody = 2.500000e+00
m.xm6.msky130_fd_pr__nfet_g5v0d10v5#body = 1.174400e-11
m.xm6.msky130_fd_pr__nfet_g5v0d10v5#dbody = 2.936000e-11
m.xm6.msky130_fd_pr__nfet_g5v0d10v5#sbody = 5.872006e-12
m.xm7.msky130_fd_pr__pfet_g5v0d10v5#body = 2.500000e+00
m.xm7.msky130_fd_pr__pfet_g5v0d10v5#dbody = 2.500000e+00
m.xm7.msky130_fd_pr__pfet_g5v0d10v5#sbody = 2.500000e+00
m.xm8.msky130_fd_pr__pfet_g5v0d10v5#body = 2.500000e+00
m.xm8.msky130_fd_pr__pfet_g5v0d10v5#dbody = 2.500000e+00
m.xm8.msky130_fd_pr__pfet_g5v0d10v5#sbody = 2.500000e+00
m.xm9.msky130_fd_pr__nfet_g5v0d10v5#body = 1.953465e-11
m.xm9.msky130_fd_pr__nfet_g5v0d10v5#dbody = 4.422306e-11
m.xm9.msky130_fd_pr__nfet_g5v0d10v5#sbody = 1.438085e-11
m.xm10.msky130_fd_pr__nfet_g5v0d10v5#body = 1.923398e-11
m.xm10.msky130_fd_pr__nfet_g5v0d10v5#dbody = 4.347140e-11
m.xm10.msky130_fd_pr__nfet_g5v0d10v5#sbody = 1.423051e-11
m.xm11.msky130_fd_pr__pfet_g5v0d10v5#body = 2.500000e+00
m.xm11.msky130_fd_pr__pfet_g5v0d10v5#dbody = 2.500000e+00
m.xm11.msky130_fd_pr__pfet_g5v0d10v5#sbody = 2.500000e+00
m.xm12.msky130_fd_pr__pfet_g5v0d10v5#body = 2.500000e+00
m.xm12.msky130_fd_pr__pfet_g5v0d10v5#dbody = 2.500000e+00
m.xm12.msky130_fd_pr__pfet_g5v0d10v5#sbody = 2.500000e+00
m.xm13.msky130_fd_pr__nfet_g5v0d10v5#body = 2.305406e-12
m.xm13.msky130_fd_pr__nfet_g5v0d10v5#dbody = 5.763504e-12
m.xm13.msky130_fd_pr__nfet_g5v0d10v5#sbody = 1.152713e-12
m.xm14.msky130_fd_pr__pfet_g5v0d10v5#body = 2.500000e+00
m.xm14.msky130_fd_pr__pfet_g5v0d10v5#dbody = 2.500000e+00
m.xm14.msky130_fd_pr__pfet_g5v0d10v5#sbody = 2.500000e+00
m.xm15.msky130_fd_pr__nfet_g5v0d10v5#body = 1.331543e-15
m.xm15.msky130_fd_pr__nfet_g5v0d10v5#dbody = 3.328793e-15
m.xm15.msky130_fd_pr__nfet_g5v0d10v5#sbody = 6.658362e-16
m.xm16.msky130_fd_pr__nfet_g5v0d10v5#body = 4.550367e-11
m.xm16.msky130_fd_pr__nfet_g5v0d10v5#dbody = 8.526053e-11
m.xm16.msky130_fd_pr__nfet_g5v0d10v5#sbody = 5.125049e-11
m.xm17.msky130_fd_pr__pfet_g5v0d10v5#body = 2.500000e+00
m.xm17.msky130_fd_pr__pfet_g5v0d10v5#dbody = 2.500000e+00
m.xm17.msky130_fd_pr__pfet_g5v0d10v5#sbody = 2.500000e+00
m.xm18.msky130_fd_pr__nfet_g5v0d10v5#body = 2.183958e-11
m.xm18.msky130_fd_pr__nfet_g5v0d10v5#dbody = 5.381169e-11
m.xm18.msky130_fd_pr__nfet_g5v0d10v5#sbody = 1.091980e-11
m.xm19.msky130_fd_pr__nfet_g5v0d10v5#body = 1.899434e-11
m.xm19.msky130_fd_pr__nfet_g5v0d10v5#dbody = 4.177046e-11
m.xm19.msky130_fd_pr__nfet_g5v0d10v5#sbody = 1.521256e-11
m.xm20.msky130_fd_pr__nfet_g5v0d10v5#body = 1.201520e-11
m.xm20.msky130_fd_pr__nfet_g5v0d10v5#dbody = 3.003800e-11
m.xm20.msky130_fd_pr__nfet_g5v0d10v5#sbody = 6.007614e-12
m.xm22.msky130_fd_pr__nfet_g5v0d10v5#body = 2.860406e-12
m.xm22.msky130_fd_pr__nfet_g5v0d10v5#dbody = 7.151009e-12
m.xm22.msky130_fd_pr__nfet_g5v0d10v5#sbody = 1.430207e-12
m.xm24.msky130_fd_pr__pfet_g5v0d10v5#body = 2.500000e+00
m.xm24.msky130_fd_pr__pfet_g5v0d10v5#dbody = 2.500000e+00
m.xm24.msky130_fd_pr__pfet_g5v0d10v5#sbody = 2.500000e+00
m.xm26.msky130_fd_pr__pfet_g5v0d10v5#body = 2.500000e+00
m.xm26.msky130_fd_pr__pfet_g5v0d10v5#dbody = 2.500000e+00
m.xm26.msky130_fd_pr__pfet_g5v0d10v5#sbody = 2.500000e+00
mir = 1.286295e+00
net1 = 7.251283e-01
net2 = 1.024584e-04
net3 = 7.846768e-01
net4 = 2.282678e-01
net5 = 1.290584e+00
net6 = 9.389553e-01
net7 = 7.846460e-01
net8 = 1.353938e+00
net9 = 1.377990e+00
net10 = 1.843021e-01
net11 = 1.715546e+00
net12 = 1.715546e+00
net13 = 0.000000e+00
out = 1.715546e+00
pos = 1.096107e+00
q.xq2.qsky130_fd_pr__pnp_05v5_w0p68l0p68#collcx = 2.093726e-03
q.xq3.qsky130_fd_pr__pnp_05v5_w0p68l0p68#collcx = 2.636564e-04
q.xq4.qsky130_fd_pr__pnp_05v5_w0p68l0p68#collcx = 2.636564e-04
q.xq8.qsky130_fd_pr__pnp_05v5_w0p68l0p68#collcx = 2.636564e-04
q.xq10.qsky130_fd_pr__pnp_05v5_w0p68l0p68#collcx = 2.636564e-04
q.xq12.qsky130_fd_pr__pnp_05v5_w0p68l0p68#collcx = 2.636564e-04
q.xq14.qsky130_fd_pr__pnp_05v5_w0p68l0p68#collcx = 2.636564e-04
q.xq16.qsky130_fd_pr__pnp_05v5_w0p68l0p68#collcx = 2.636564e-04
q.xq18.qsky130_fd_pr__pnp_05v5_w0p68l0p68#collcx = 2.636564e-04
vb = 9.610857e-01
vdd = 2.500000e+00
vs#branch = -1.72754e-04
vt#branch = 0.000000e+00
xc1.a = 0.000000e+00
xc1.b1 = 0.000000e+00
xc3.a = 1.715546e+00
xc3.b1 = 1.715546e+00
xr1.xsky130_fd_pr__res_xhigh_po_0p69.ra = 7.923997e-01
xr2.xsky130_fd_pr__res_xhigh_po_0p69.ra = 7.924306e-01
xr3.xsky130_fd_pr__res_xhigh_po_0p69.ra = 5.363164e-03
xr4.xsky130_fd_pr__res_xhigh_po_0p69.ra = 7.276654e-01
xr5.xsky130_fd_pr__res_xhigh_po_0p69.ra = 5.362940e-03
xr6.xsky130_fd_pr__res_xhigh_po_0p69.ra = 8.228835e-03
xr7.xsky130_fd_pr__res_xhigh_po_0p69.ra = 1.715546e+00
xr8.xsky130_fd_pr__res_xhigh_po_0p69.ra = 1.108616e+00
xr9.xsky130_fd_pr__res_xhigh_po_0p69.ra = 1.291322e-02
Doing analysis at TEMP = 27.000000 and TNOM = 27.000000


No. of Data Rows : 91
Note: Starting true gmin stepping
Trying gmin =   1.0000E-03 Note: One successful gmin step
Trying gmin =   1.0000E-04 Note: One successful gmin step
Trying gmin =   1.0000E-05 Note: One successful gmin step
Trying gmin =   1.0000E-06 Note: One successful gmin step
Trying gmin =   1.0000E-07 Note: One successful gmin step
Trying gmin =   1.0000E-08 Note: One successful gmin step
Trying gmin =   1.0000E-09 Note: One successful gmin step
Trying gmin =   1.0000E-10 Note: One successful gmin step
Trying gmin =   1.0000E-11 Note: One successful gmin step
Trying gmin =   1.0000E-12 Note: One successful gmin step
Trying gmin =   1.0000E-12 Note: One successful gmin step
Note: True gmin stepping completed
 Reference value :  2.80000e+00Note: Starting true gmin stepping
Trying gmin =   1.0000E-03 Note: One successful gmin step
Trying gmin =   1.0000E-04 Note: One successful gmin step
Trying gmin =   1.0000E-05 Note: One successful gmin step
Trying gmin =   1.0000E-06 Note: One successful gmin step
Trying gmin =   1.0000E-07 Note: One successful gmin step
Trying gmin =   1.0000E-08 Note: One successful gmin step
Trying gmin =   1.0000E-09 Warning: Further gmin increment
Trying gmin =   5.6234E-09 Note: One successful gmin step
Trying gmin =   2.3714E-09 Note: One successful gmin step
Trying gmin =   6.4938E-10 Warning: Further gmin increment
Trying gmin =   1.7154E-09 Note: One successful gmin step
Trying gmin =   1.0554E-09 Note: One successful gmin step
Trying gmin =   5.0937E-10 Warning: Further gmin increment
Trying gmin =   8.7970E-10 Note: One successful gmin step
Trying gmin =   6.6940E-10 Note: One successful gmin step
Trying gmin =   4.4433E-10 Note: One successful gmin step
Trying gmin =   2.4029E-10 Note: One successful gmin step
Trying gmin =   9.5562E-11 Note: One successful gmin step
Trying gmin =   2.3967E-11 Note: One successful gmin step
Trying gmin =   3.0102E-12 Note: One successful gmin step
Trying gmin =   1.0000E-12 Note: One successful gmin step
Note: True gmin stepping completed
 Reference value :  1.26000e+00Note: Starting true gmin stepping
Trying gmin =   1.0000E-03 Note: One successful gmin step
Trying gmin =   1.0000E-04 Note: One successful gmin step
Trying gmin =   1.0000E-05 Note: One successful gmin step
Trying gmin =   1.0000E-06 Note: One successful gmin step
Trying gmin =   1.0000E-07 Note: One successful gmin step
Trying gmin =   1.0000E-08 Note: One successful gmin step
Trying gmin =   1.0000E-09 Note: One successful gmin step
Trying gmin =   1.0000E-10 Warning: Further gmin increment
Trying gmin =   5.6234E-10 Warning: Further gmin increment
Trying gmin =   8.6596E-10 Note: One successful gmin step
Trying gmin =   6.9783E-10 Note: One successful gmin step
Trying gmin =   5.0481E-10 Note: One successful gmin step
Trying gmin =   3.1059E-10 Note: One successful gmin step
Trying gmin =   1.4989E-10 Note: One successful gmin step
Trying gmin =   5.0254E-11 Note: One successful gmin step
Trying gmin =   9.7557E-12 Note: One successful gmin step
Trying gmin =   1.0000E-12 Note: One successful gmin step
Note: True gmin stepping completed
 Reference value :  2.00000e-02pm                  =  6.367514e+01
Doing analysis at TEMP = 27.000000 and TNOM = 27.000000


No. of Data Rows : 91
psrr100             =  -7.446656e+01
psrr100k            =  -2.781621e+01
Doing analysis at TEMP = 27.000000 and TNOM = 27.000000


No. of Data Rows : 86
temp_coeff = 2.603450e+01
Doing analysis at TEMP = 27.000000 and TNOM = 27.000000


No. of Data Rows : 141
vldo_sup_2          =  1.999888e+00
vldo_sup_2_8        =  2.799898e+00
line_reg = 1.000012e+00
Note: No ".plot", ".print", or ".fourier" lines; no simulations run
vin                 =  1.764122e+00
dropout = 1.220000e-04
