 Reference value :  0.00000e+00
No compatibility mode selected!


Circuit: * ldo netlist 

Doing analysis at TEMP = 27.000000 and TNOM = 27.000000


No. of Data Rows : 1
bg_out = 1.194090e+00
inn = 1.224774e+00
inp = 1.224723e+00
l1#branch = 0.000000e+00
ldo_out = 1.796292e+00
m.xm1.msky130_fd_pr__nfet_g5v0d10v5#body = 1.514817e-11
m.xm1.msky130_fd_pr__nfet_g5v0d10v5#dbody = 3.188025e-11
m.xm1.msky130_fd_pr__nfet_g5v0d10v5#sbody = 1.356425e-11
m.xm2.msky130_fd_pr__pfet_g5v0d10v5#body = 2.100000e+00
m.xm2.msky130_fd_pr__pfet_g5v0d10v5#dbody = 2.100000e+00
m.xm2.msky130_fd_pr__pfet_g5v0d10v5#sbody = 2.100000e+00
m.xm3.msky130_fd_pr__pfet_g5v0d10v5#body = 2.100000e+00
m.xm3.msky130_fd_pr__pfet_g5v0d10v5#dbody = 2.100000e+00
m.xm3.msky130_fd_pr__pfet_g5v0d10v5#sbody = 2.100000e+00
m.xm4.msky130_fd_pr__pfet_g5v0d10v5#body = 2.100000e+00
m.xm4.msky130_fd_pr__pfet_g5v0d10v5#dbody = 2.100000e+00
m.xm4.msky130_fd_pr__pfet_g5v0d10v5#sbody = 2.100000e+00
m.xm5.msky130_fd_pr__pfet_g5v0d10v5#body = 2.100000e+00
m.xm5.msky130_fd_pr__pfet_g5v0d10v5#dbody = 2.100000e+00
m.xm5.msky130_fd_pr__pfet_g5v0d10v5#sbody = 2.100000e+00
m.xm6.msky130_fd_pr__nfet_g5v0d10v5#body = 1.241022e-11
m.xm6.msky130_fd_pr__nfet_g5v0d10v5#dbody = 3.102555e-11
m.xm6.msky130_fd_pr__nfet_g5v0d10v5#sbody = 6.205116e-12
m.xm7.msky130_fd_pr__pfet_g5v0d10v5#body = 2.100000e+00
m.xm7.msky130_fd_pr__pfet_g5v0d10v5#dbody = 2.100000e+00
m.xm7.msky130_fd_pr__pfet_g5v0d10v5#sbody = 2.100000e+00
m.xm8.msky130_fd_pr__pfet_g5v0d10v5#body = 2.100000e+00
m.xm8.msky130_fd_pr__pfet_g5v0d10v5#dbody = 2.100000e+00
m.xm8.msky130_fd_pr__pfet_g5v0d10v5#sbody = 2.100000e+00
m.xm9.msky130_fd_pr__nfet_g5v0d10v5#body = 1.585122e-11
m.xm9.msky130_fd_pr__nfet_g5v0d10v5#dbody = 3.456702e-11
m.xm9.msky130_fd_pr__nfet_g5v0d10v5#sbody = 1.298664e-11
m.xm10.msky130_fd_pr__nfet_g5v0d10v5#body = 1.559543e-11
m.xm10.msky130_fd_pr__nfet_g5v0d10v5#dbody = 3.392756e-11
m.xm10.msky130_fd_pr__nfet_g5v0d10v5#sbody = 1.285875e-11
m.xm11.msky130_fd_pr__pfet_g5v0d10v5#body = 2.100000e+00
m.xm11.msky130_fd_pr__pfet_g5v0d10v5#dbody = 2.100000e+00
m.xm11.msky130_fd_pr__pfet_g5v0d10v5#sbody = 2.100000e+00
m.xm12.msky130_fd_pr__pfet_g5v0d10v5#body = 2.100000e+00
m.xm12.msky130_fd_pr__pfet_g5v0d10v5#dbody = 2.100000e+00
m.xm12.msky130_fd_pr__pfet_g5v0d10v5#sbody = 2.100000e+00
m.xm13.msky130_fd_pr__nfet_g5v0d10v5#body = 2.529158e-12
m.xm13.msky130_fd_pr__nfet_g5v0d10v5#dbody = 6.322885e-12
m.xm13.msky130_fd_pr__nfet_g5v0d10v5#sbody = 1.264589e-12
m.xm14.msky130_fd_pr__pfet_g5v0d10v5#body = 2.100000e+00
m.xm14.msky130_fd_pr__pfet_g5v0d10v5#dbody = 2.100000e+00
m.xm14.msky130_fd_pr__pfet_g5v0d10v5#sbody = 2.100000e+00
m.xm15.msky130_fd_pr__nfet_g5v0d10v5#body = 7.998027e-17
m.xm15.msky130_fd_pr__nfet_g5v0d10v5#dbody = 1.999474e-16
m.xm15.msky130_fd_pr__nfet_g5v0d10v5#sbody = 3.999339e-17
m.xm16.msky130_fd_pr__nfet_g5v0d10v5#body = 4.156843e-11
m.xm16.msky130_fd_pr__nfet_g5v0d10v5#dbody = 7.329297e-11
m.xm16.msky130_fd_pr__nfet_g5v0d10v5#sbody = 5.141232e-11
m.xm17.msky130_fd_pr__pfet_g5v0d10v5#body = 2.100000e+00
m.xm17.msky130_fd_pr__pfet_g5v0d10v5#dbody = 2.100000e+00
m.xm17.msky130_fd_pr__pfet_g5v0d10v5#sbody = 2.100000e+00
m.xm18.msky130_fd_pr__nfet_g5v0d10v5#body = 1.767487e-11
m.xm18.msky130_fd_pr__nfet_g5v0d10v5#dbody = 4.418476e-11
m.xm18.msky130_fd_pr__nfet_g5v0d10v5#sbody = 8.837446e-12
m.xm19.msky130_fd_pr__nfet_g5v0d10v5#body = 1.522002e-11
m.xm19.msky130_fd_pr__nfet_g5v0d10v5#dbody = 3.205987e-11
m.xm19.msky130_fd_pr__nfet_g5v0d10v5#sbody = 1.360018e-11
m.xm20.msky130_fd_pr__nfet_g5v0d10v5#body = 1.303987e-11
m.xm20.msky130_fd_pr__nfet_g5v0d10v5#dbody = 3.259966e-11
m.xm20.msky130_fd_pr__nfet_g5v0d10v5#sbody = 6.519947e-12
m.xm22.msky130_fd_pr__nfet_g5v0d10v5#body = 2.997797e-12
m.xm22.msky130_fd_pr__nfet_g5v0d10v5#dbody = 7.494488e-12
m.xm22.msky130_fd_pr__nfet_g5v0d10v5#sbody = 1.498903e-12
m.xm24.msky130_fd_pr__pfet_g5v0d10v5#body = 2.100000e+00
m.xm24.msky130_fd_pr__pfet_g5v0d10v5#dbody = 2.100000e+00
m.xm24.msky130_fd_pr__pfet_g5v0d10v5#sbody = 2.100000e+00
m.xm26.msky130_fd_pr__pfet_g5v0d10v5#body = 2.100000e+00
m.xm26.msky130_fd_pr__pfet_g5v0d10v5#dbody = 2.100000e+00
m.xm26.msky130_fd_pr__pfet_g5v0d10v5#sbody = 2.100000e+00
mir = 9.718965e-01
net1 = 7.262560e-01
net2 = 6.153326e-06
net3 = 7.859532e-01
net4 = 2.392567e-01
net5 = 9.776445e-01
net6 = 9.922504e-01
net7 = 7.859006e-01
net8 = 1.044952e+00
net9 = 1.065415e+00
net10 = 2.021997e-01
net11 = 1.413761e+00
net12 = 1.413761e+00
net13 = 0.000000e+00
out = 1.413761e+00
pos = 1.194308e+00
q.xq2.qsky130_fd_pr__pnp_05v5_w0p68l0p68#collcx = 2.180767e-03
q.xq3.qsky130_fd_pr__pnp_05v5_w0p68l0p68#collcx = 2.747335e-04
q.xq4.qsky130_fd_pr__pnp_05v5_w0p68l0p68#collcx = 2.747335e-04
q.xq8.qsky130_fd_pr__pnp_05v5_w0p68l0p68#collcx = 2.747335e-04
q.xq10.qsky130_fd_pr__pnp_05v5_w0p68l0p68#collcx = 2.747335e-04
q.xq12.qsky130_fd_pr__pnp_05v5_w0p68l0p68#collcx = 2.747335e-04
q.xq14.qsky130_fd_pr__pnp_05v5_w0p68l0p68#collcx = 2.747335e-04
q.xq16.qsky130_fd_pr__pnp_05v5_w0p68l0p68#collcx = 2.747335e-04
q.xq18.qsky130_fd_pr__pnp_05v5_w0p68l0p68#collcx = 2.747335e-04
vb = 1.043057e+00
vdd = 2.100000e+00
vs#branch = -1.75244e-04
vt#branch = 0.000000e+00
xc1.a = 0.000000e+00
xc1.b1 = 0.000000e+00
xc3.a = 1.413761e+00
xc3.b1 = 1.413761e+00
xr1.xsky130_fd_pr__res_xhigh_po_0p69.ra = 7.912252e-01
xr2.xsky130_fd_pr__res_xhigh_po_0p69.ra = 7.912778e-01
xr3.xsky130_fd_pr__res_xhigh_po_0p69.ra = 3.606032e-03
xr4.xsky130_fd_pr__res_xhigh_po_0p69.ra = 7.280444e-01
xr5.xsky130_fd_pr__res_xhigh_po_0p69.ra = 3.605775e-03
xr6.xsky130_fd_pr__res_xhigh_po_0p69.ra = 5.661239e-03
xr7.xsky130_fd_pr__res_xhigh_po_0p69.ra = 1.413761e+00
xr8.xsky130_fd_pr__res_xhigh_po_0p69.ra = 1.203724e+00
xr9.xsky130_fd_pr__res_xhigh_po_0p69.ra = 9.874035e-03
Doing analysis at TEMP = 27.000000 and TNOM = 27.000000


No. of Data Rows : 91
Note: Starting true gmin stepping
Trying gmin =   1.0000E-03 Note: One successful gmin step
Trying gmin =   1.0000E-04 Note: One successful gmin step
Trying gmin =   1.0000E-05 Note: One successful gmin step
Trying gmin =   1.0000E-06 Note: One successful gmin step
Trying gmin =   1.0000E-07 Warning: Further gmin increment
Trying gmin =   5.6234E-07 Note: One successful gmin step
Trying gmin =   2.3714E-07 Note: One successful gmin step
Trying gmin =   6.4938E-08 Warning: Further gmin increment
Trying gmin =   1.7154E-07 Note: One successful gmin step
Trying gmin =   1.0554E-07 Warning: Further gmin increment
Trying gmin =   1.5193E-07 Note: One successful gmin step
Trying gmin =   1.2663E-07 Warning: Further gmin increment
Trying gmin =   1.4517E-07 Note: One successful gmin step
Trying gmin =   1.3558E-07 Note: One successful gmin step
Trying gmin =   1.2238E-07 Warning: Further gmin increment
Trying gmin =   1.3215E-07 Note: One successful gmin step
Trying gmin =   1.2717E-07 Note: One successful gmin step
Trying gmin =   1.2005E-07 Warning: Further gmin increment
Trying gmin =   1.2535E-07 Note: One successful gmin step
Trying gmin =   1.2445E-07 Note: One successful gmin step
Trying gmin =   1.2312E-07 Note: One successful gmin step
Trying gmin =   1.2114E-07 Note: One successful gmin step
Trying gmin =   1.1823E-07 Note: One successful gmin step
Trying gmin =   1.1399E-07 Note: One successful gmin step
Trying gmin =   1.0792E-07 Note: One successful gmin step
Trying gmin =   9.9423E-08 Note: One successful gmin step
Trying gmin =   8.7909E-08 Note: One successful gmin step
Trying gmin =   7.3089E-08 Note: One successful gmin step
Trying gmin =   5.5409E-08 Warning: Further gmin increment
Trying gmin =   6.8200E-08 Warning: Further gmin increment
Trying gmin =   7.1835E-08 Note: One successful gmin step
Trying gmin =   6.9994E-08 Warning: Further gmin increment
Trying gmin =   7.1370E-08 Note: One successful gmin step
Trying gmin =   7.0678E-08 Warning: Further gmin increment
Trying gmin =   7.1196E-08 Note: One successful gmin step
Trying gmin =   7.0937E-08 Note: One successful gmin step
Trying gmin =   7.0549E-08 Note: One successful gmin step
Trying gmin =   6.9972E-08 Note: One successful gmin step
Trying gmin =   6.9115E-08 Note: One successful gmin step
Trying gmin =   6.7850E-08 Note: One successful gmin step
Trying gmin =   6.5994E-08 Note: One successful gmin step
Trying gmin =   6.3306E-08 Note: One successful gmin step
Trying gmin =   5.9478E-08 Note: One successful gmin step
Trying gmin =   5.4165E-08 Note: One successful gmin step
Trying gmin =   4.7072E-08 Note: One successful gmin step
Trying gmin =   3.8135E-08 Note: One successful gmin step
Trying gmin =   2.7808E-08 Note: One successful gmin step
Trying gmin =   1.7316E-08 Note: One successful gmin step
Trying gmin =   8.5086E-09 Note: One successful gmin step
Trying gmin =   2.9307E-09 Note: One successful gmin step
Trying gmin =   5.9244E-10 Note: One successful gmin step
Trying gmin =   5.9244E-11 Note: One successful gmin step
Trying gmin =   5.9244E-12 Note: One successful gmin step
Trying gmin =   1.0000E-12 Note: One successful gmin step
Note: True gmin stepping completed
 Reference value :  2.80000e+00Note: Starting true gmin stepping
Trying gmin =   1.0000E-03 Note: One successful gmin step
Trying gmin =   1.0000E-04 Note: One successful gmin step
Trying gmin =   1.0000E-05 Note: One successful gmin step
Trying gmin =   1.0000E-06 Note: One successful gmin step
Trying gmin =   1.0000E-07 Note: One successful gmin step
Trying gmin =   1.0000E-08 Warning: Further gmin increment
Trying gmin =   5.6234E-08 Note: One successful gmin step
Trying gmin =   2.3714E-08 Note: One successful gmin step
Trying gmin =   6.4938E-09 Note: One successful gmin step
Trying gmin =   9.3057E-10 Note: One successful gmin step
Trying gmin =   9.3057E-11 Note: One successful gmin step
Trying gmin =   9.3057E-12 Warning: Further gmin increment
Trying gmin =   5.2330E-11 Note: One successful gmin step
Trying gmin =   2.2067E-11 Warning: Further gmin increment
Trying gmin =   4.2170E-11 Note: One successful gmin step
Trying gmin =   3.0505E-11 Note: One successful gmin step
Trying gmin =   1.8769E-11 Warning: Further gmin increment
Trying gmin =   2.7017E-11 Note: One successful gmin step
Trying gmin =   2.2518E-11 Note: One successful gmin step
Trying gmin =   1.8769E-11 Note: One successful gmin step
Trying gmin =   1.4282E-11 Note: One successful gmin step
Trying gmin =   9.4800E-12 Note: One successful gmin step
Trying gmin =   5.1267E-12 Note: One successful gmin step
Trying gmin =   2.0389E-12 Note: One successful gmin step
Trying gmin =   1.0000E-12 Note: One successful gmin step
Note: True gmin stepping completed
 Reference value :  1.18000e+00Note: Starting true gmin stepping
Trying gmin =   1.0000E-03 Note: One successful gmin step
Trying gmin =   1.0000E-04 Note: One successful gmin step
Trying gmin =   1.0000E-05 Note: One successful gmin step
Trying gmin =   1.0000E-06 Note: One successful gmin step
Trying gmin =   1.0000E-07 Note: One successful gmin step
Trying gmin =   1.0000E-08 Note: One successful gmin step
Trying gmin =   1.0000E-09 Note: One successful gmin step
Trying gmin =   1.0000E-10 Note: One successful gmin step
Trying gmin =   1.0000E-11 Warning: Further gmin increment
Trying gmin =   5.6234E-11 Note: One successful gmin step
Trying gmin =   2.3714E-11 Note: One successful gmin step
Trying gmin =   6.4938E-12 Warning: Further gmin increment
Trying gmin =   1.7154E-11 Warning: Further gmin increment
Trying gmin =   2.1870E-11 Note: One successful gmin step
Trying gmin =   1.9369E-11 Note: One successful gmin step
Trying gmin =   1.6144E-11 Warning: Further gmin increment
Trying gmin =   1.8507E-11 Note: One successful gmin step
Trying gmin =   1.7285E-11 Note: One successful gmin step
Trying gmin =   1.6144E-11 Note: One successful gmin step
Trying gmin =   1.4572E-11 Note: One successful gmin step
Trying gmin =   1.2496E-11 Note: One successful gmin step
Trying gmin =   9.9234E-12 Note: One successful gmin step
Trying gmin =   7.0225E-12 Note: One successful gmin step
Trying gmin =   4.1806E-12 Note: One successful gmin step
Trying gmin =   1.9202E-12 Note: One successful gmin step
Trying gmin =   1.0000E-12 Note: One successful gmin step
Note: True gmin stepping completed
 Reference value :  1.16000e+00pm                  =  5.814833e+01
Doing analysis at TEMP = 27.000000 and TNOM = 27.000000


No. of Data Rows : 91
psrr100             =  -7.466827e+01
psrr100k            =  -2.637156e+01
Doing analysis at TEMP = 27.000000 and TNOM = 27.000000


No. of Data Rows : 86
temp_coeff = 1.150975e+02
Doing analysis at TEMP = 27.000000 and TNOM = 27.000000


No. of Data Rows : 141
vldo_sup_2          =  1.796311e+00
vldo_sup_2_8        =  1.796244e+00
line_reg = 8.375000e-05
Note: No ".plot", ".print", or ".fourier" lines; no simulations run
vin                 =  1.764102e+00
dropout = 1.020000e-04
