 Reference value :  0.00000e+00
No compatibility mode selected!


Circuit: * ldo netlist 

Doing analysis at TEMP = 85.000000 and TNOM = 27.000000


No. of Data Rows : 1
bg_out = 1.200967e+00
inn = 1.151159e+00
inp = 1.151101e+00
l1#branch = 0.000000e+00
ldo_out = 1.806351e+00
m.xm1.msky130_fd_pr__nfet_g5v0d10v5#body = 2.727626e-11
m.xm1.msky130_fd_pr__nfet_g5v0d10v5#dbody = 5.135336e-11
m.xm1.msky130_fd_pr__nfet_g5v0d10v5#sbody = 3.047543e-11
m.xm2.msky130_fd_pr__pfet_g5v0d10v5#body = 2.300000e+00
m.xm2.msky130_fd_pr__pfet_g5v0d10v5#dbody = 2.300000e+00
m.xm2.msky130_fd_pr__pfet_g5v0d10v5#sbody = 2.300000e+00
m.xm3.msky130_fd_pr__pfet_g5v0d10v5#body = 2.300000e+00
m.xm3.msky130_fd_pr__pfet_g5v0d10v5#dbody = 2.300000e+00
m.xm3.msky130_fd_pr__pfet_g5v0d10v5#sbody = 2.300000e+00
m.xm4.msky130_fd_pr__pfet_g5v0d10v5#body = 2.300000e+00
m.xm4.msky130_fd_pr__pfet_g5v0d10v5#dbody = 2.300000e+00
m.xm4.msky130_fd_pr__pfet_g5v0d10v5#sbody = 2.300000e+00
m.xm5.msky130_fd_pr__pfet_g5v0d10v5#body = 2.300000e+00
m.xm5.msky130_fd_pr__pfet_g5v0d10v5#dbody = 2.300000e+00
m.xm5.msky130_fd_pr__pfet_g5v0d10v5#sbody = 2.300000e+00
m.xm6.msky130_fd_pr__nfet_g5v0d10v5#body = 2.024994e-11
m.xm6.msky130_fd_pr__nfet_g5v0d10v5#dbody = 5.062474e-11
m.xm6.msky130_fd_pr__nfet_g5v0d10v5#sbody = 1.012508e-11
m.xm7.msky130_fd_pr__pfet_g5v0d10v5#body = 2.300000e+00
m.xm7.msky130_fd_pr__pfet_g5v0d10v5#dbody = 2.300000e+00
m.xm7.msky130_fd_pr__pfet_g5v0d10v5#sbody = 2.300000e+00
m.xm8.msky130_fd_pr__pfet_g5v0d10v5#body = 2.300000e+00
m.xm8.msky130_fd_pr__pfet_g5v0d10v5#dbody = 2.300000e+00
m.xm8.msky130_fd_pr__pfet_g5v0d10v5#sbody = 2.300000e+00
m.xm9.msky130_fd_pr__nfet_g5v0d10v5#body = 2.547171e-11
m.xm9.msky130_fd_pr__nfet_g5v0d10v5#dbody = 4.970755e-11
m.xm9.msky130_fd_pr__nfet_g5v0d10v5#sbody = 2.670759e-11
m.xm10.msky130_fd_pr__nfet_g5v0d10v5#body = 2.537772e-11
m.xm10.msky130_fd_pr__nfet_g5v0d10v5#dbody = 4.947257e-11
m.xm10.msky130_fd_pr__nfet_g5v0d10v5#sbody = 2.666059e-11
m.xm11.msky130_fd_pr__pfet_g5v0d10v5#body = 2.300000e+00
m.xm11.msky130_fd_pr__pfet_g5v0d10v5#dbody = 2.300000e+00
m.xm11.msky130_fd_pr__pfet_g5v0d10v5#sbody = 2.300000e+00
m.xm12.msky130_fd_pr__pfet_g5v0d10v5#body = 2.300000e+00
m.xm12.msky130_fd_pr__pfet_g5v0d10v5#dbody = 2.300000e+00
m.xm12.msky130_fd_pr__pfet_g5v0d10v5#sbody = 2.300000e+00
m.xm13.msky130_fd_pr__nfet_g5v0d10v5#body = 5.338658e-12
m.xm13.msky130_fd_pr__nfet_g5v0d10v5#dbody = 1.334658e-11
m.xm13.msky130_fd_pr__nfet_g5v0d10v5#sbody = 2.669393e-12
m.xm14.msky130_fd_pr__pfet_g5v0d10v5#body = 2.300000e+00
m.xm14.msky130_fd_pr__pfet_g5v0d10v5#dbody = 2.300000e+00
m.xm14.msky130_fd_pr__pfet_g5v0d10v5#sbody = 2.300000e+00
m.xm15.msky130_fd_pr__nfet_g5v0d10v5#body = 9.610083e-15
m.xm15.msky130_fd_pr__nfet_g5v0d10v5#dbody = 2.402477e-14
m.xm15.msky130_fd_pr__nfet_g5v0d10v5#sbody = 4.805479e-15
m.xm16.msky130_fd_pr__nfet_g5v0d10v5#body = 5.374582e-11
m.xm16.msky130_fd_pr__nfet_g5v0d10v5#dbody = 9.497923e-11
m.xm16.msky130_fd_pr__nfet_g5v0d10v5#sbody = 6.625822e-11
m.xm17.msky130_fd_pr__pfet_g5v0d10v5#body = 2.300000e+00
m.xm17.msky130_fd_pr__pfet_g5v0d10v5#dbody = 2.300000e+00
m.xm17.msky130_fd_pr__pfet_g5v0d10v5#sbody = 2.300000e+00
m.xm18.msky130_fd_pr__nfet_g5v0d10v5#body = 1.080306e-11
m.xm18.msky130_fd_pr__nfet_g5v0d10v5#dbody = 2.700758e-11
m.xm18.msky130_fd_pr__nfet_g5v0d10v5#sbody = 5.401600e-12
m.xm19.msky130_fd_pr__nfet_g5v0d10v5#body = 2.735648e-11
m.xm19.msky130_fd_pr__nfet_g5v0d10v5#dbody = 5.155390e-11
m.xm19.msky130_fd_pr__nfet_g5v0d10v5#sbody = 3.051553e-11
m.xm20.msky130_fd_pr__nfet_g5v0d10v5#body = 1.424638e-11
m.xm20.msky130_fd_pr__nfet_g5v0d10v5#dbody = 3.561586e-11
m.xm20.msky130_fd_pr__nfet_g5v0d10v5#sbody = 7.123260e-12
m.xm22.msky130_fd_pr__nfet_g5v0d10v5#body = 1.171243e-11
m.xm22.msky130_fd_pr__nfet_g5v0d10v5#dbody = 2.928098e-11
m.xm22.msky130_fd_pr__nfet_g5v0d10v5#sbody = 5.856320e-12
m.xm24.msky130_fd_pr__pfet_g5v0d10v5#body = 2.300000e+00
m.xm24.msky130_fd_pr__pfet_g5v0d10v5#dbody = 2.300000e+00
m.xm24.msky130_fd_pr__pfet_g5v0d10v5#sbody = 2.300000e+00
m.xm26.msky130_fd_pr__pfet_g5v0d10v5#body = 2.300000e+00
m.xm26.msky130_fd_pr__pfet_g5v0d10v5#dbody = 2.300000e+00
m.xm26.msky130_fd_pr__pfet_g5v0d10v5#sbody = 2.300000e+00
mir = 1.084356e+00
net1 = 6.354993e-01
net2 = 1.852409e-05
net3 = 7.083333e-01
net4 = 2.494716e-01
net5 = 1.090773e+00
net6 = 9.320941e-01
net7 = 7.082739e-01
net8 = 1.178917e+00
net9 = 1.186437e+00
net10 = 2.665340e-01
net11 = 7.036331e-01
net12 = 7.036331e-01
net13 = 0.000000e+00
out = 7.036331e-01
pos = 1.201053e+00
q.xq2.qsky130_fd_pr__pnp_05v5_w0p68l0p68#collcx = 2.689463e-03
q.xq3.qsky130_fd_pr__pnp_05v5_w0p68l0p68#collcx = 3.418484e-04
q.xq4.qsky130_fd_pr__pnp_05v5_w0p68l0p68#collcx = 3.418484e-04
q.xq8.qsky130_fd_pr__pnp_05v5_w0p68l0p68#collcx = 3.418484e-04
q.xq10.qsky130_fd_pr__pnp_05v5_w0p68l0p68#collcx = 3.418484e-04
q.xq12.qsky130_fd_pr__pnp_05v5_w0p68l0p68#collcx = 3.418484e-04
q.xq14.qsky130_fd_pr__pnp_05v5_w0p68l0p68#collcx = 3.418484e-04
q.xq16.qsky130_fd_pr__pnp_05v5_w0p68l0p68#collcx = 3.418484e-04
q.xq18.qsky130_fd_pr__pnp_05v5_w0p68l0p68#collcx = 3.418484e-04
vb = 9.790982e-01
vdd = 2.300000e+00
vs#branch = -1.00484e-01
vt#branch = 0.000000e+00
xc1.a = 0.000000e+00
xc1.b1 = 0.000000e+00
xc3.a = 7.036331e-01
xc3.b1 = 7.036331e-01
xr1.xsky130_fd_pr__res_xhigh_po_0p69.ra = 7.165287e-01
xr2.xsky130_fd_pr__res_xhigh_po_0p69.ra = 7.165881e-01
xr3.xsky130_fd_pr__res_xhigh_po_0p69.ra = 4.957777e-03
xr4.xsky130_fd_pr__res_xhigh_po_0p69.ra = 6.388457e-01
xr5.xsky130_fd_pr__res_xhigh_po_0p69.ra = 4.957337e-03
xr6.xsky130_fd_pr__res_xhigh_po_0p69.ra = 8.745933e-03
xr7.xsky130_fd_pr__res_xhigh_po_0p69.ra = 7.036331e-01
xr8.xsky130_fd_pr__res_xhigh_po_0p69.ra = 1.215595e+00
xr9.xsky130_fd_pr__res_xhigh_po_0p69.ra = 1.525344e-02
Doing analysis at TEMP = 85.000000 and TNOM = 27.000000


No. of Data Rows : 91
Note: Starting true gmin stepping
Trying gmin =   1.0000E-03 Note: One successful gmin step
Trying gmin =   1.0000E-04 Note: One successful gmin step
Trying gmin =   1.0000E-05 Note: One successful gmin step
Trying gmin =   1.0000E-06 Note: One successful gmin step
Trying gmin =   1.0000E-07 Note: One successful gmin step
Trying gmin =   1.0000E-08 Note: One successful gmin step
Trying gmin =   1.0000E-09 Note: One successful gmin step
Trying gmin =   1.0000E-10 Note: One successful gmin step
Trying gmin =   1.0000E-11 Note: One successful gmin step
Trying gmin =   1.0000E-12 Note: One successful gmin step
Trying gmin =   1.0000E-12 Note: One successful gmin step
Note: True gmin stepping completed
 Reference value :  1.20000e+00Note: Starting true gmin stepping
Trying gmin =   1.0000E-03 Note: One successful gmin step
Trying gmin =   1.0000E-04 Note: One successful gmin step
Trying gmin =   1.0000E-05 Note: One successful gmin step
Trying gmin =   1.0000E-06 Note: One successful gmin step
Trying gmin =   1.0000E-07 Note: One successful gmin step
Trying gmin =   1.0000E-08 Note: One successful gmin step
Trying gmin =   1.0000E-09 Note: One successful gmin step
Trying gmin =   3.1623E-10 Note: One successful gmin step
Trying gmin =   5.6234E-11 Note: One successful gmin step
Trying gmin =   5.6234E-12 Note: One successful gmin step
Trying gmin =   1.0000E-12 Note: One successful gmin step
Note: True gmin stepping completed
pm                  =  1.243136e+02
Doing analysis at TEMP = 85.000000 and TNOM = 27.000000


No. of Data Rows : 91
psrr100             =  -4.947579e+01
psrr100k            =  -2.351817e+01
Doing analysis at TEMP = 85.000000 and TNOM = 27.000000


No. of Data Rows : 86
temp_coeff = 1.169868e+02
Doing analysis at TEMP = 85.000000 and TNOM = 27.000000


No. of Data Rows : 141
vldo_sup_2          =  1.779839e+00
vldo_sup_2_8        =  1.807183e+00
line_reg = 3.418000e-02
Note: No ".plot", ".print", or ".fourier" lines; no simulations run
vin                 =  1.985228e+00
dropout = 2.212280e-01
