 Reference value :  0.00000e+00
No compatibility mode selected!


Circuit: * ldo netlist 

Doing analysis at TEMP = 27.000000 and TNOM = 27.000000


No. of Data Rows : 1
bg_out = 1.189170e+00
inn = 1.217249e+00
inp = 1.217223e+00
l1#branch = 0.000000e+00
ldo_out = 1.788754e+00
m.xm1.msky130_fd_pr__nfet_g5v0d10v5#body = 1.584131e-11
m.xm1.msky130_fd_pr__nfet_g5v0d10v5#dbody = 3.160902e-11
m.xm1.msky130_fd_pr__nfet_g5v0d10v5#sbody = 1.591491e-11
m.xm2.msky130_fd_pr__pfet_g5v0d10v5#body = 2.100000e+00
m.xm2.msky130_fd_pr__pfet_g5v0d10v5#dbody = 2.100000e+00
m.xm2.msky130_fd_pr__pfet_g5v0d10v5#sbody = 2.100000e+00
m.xm3.msky130_fd_pr__pfet_g5v0d10v5#body = 2.100000e+00
m.xm3.msky130_fd_pr__pfet_g5v0d10v5#dbody = 2.100000e+00
m.xm3.msky130_fd_pr__pfet_g5v0d10v5#sbody = 2.100000e+00
m.xm4.msky130_fd_pr__pfet_g5v0d10v5#body = 2.100000e+00
m.xm4.msky130_fd_pr__pfet_g5v0d10v5#dbody = 2.100000e+00
m.xm4.msky130_fd_pr__pfet_g5v0d10v5#sbody = 2.100000e+00
m.xm5.msky130_fd_pr__pfet_g5v0d10v5#body = 2.100000e+00
m.xm5.msky130_fd_pr__pfet_g5v0d10v5#dbody = 2.100000e+00
m.xm5.msky130_fd_pr__pfet_g5v0d10v5#sbody = 2.100000e+00
m.xm6.msky130_fd_pr__nfet_g5v0d10v5#body = 1.129300e-11
m.xm6.msky130_fd_pr__nfet_g5v0d10v5#dbody = 2.823250e-11
m.xm6.msky130_fd_pr__nfet_g5v0d10v5#sbody = 5.646506e-12
m.xm7.msky130_fd_pr__pfet_g5v0d10v5#body = 2.100000e+00
m.xm7.msky130_fd_pr__pfet_g5v0d10v5#dbody = 2.100000e+00
m.xm7.msky130_fd_pr__pfet_g5v0d10v5#sbody = 2.100000e+00
m.xm8.msky130_fd_pr__pfet_g5v0d10v5#body = 2.100000e+00
m.xm8.msky130_fd_pr__pfet_g5v0d10v5#dbody = 2.100000e+00
m.xm8.msky130_fd_pr__pfet_g5v0d10v5#sbody = 2.100000e+00
m.xm9.msky130_fd_pr__nfet_g5v0d10v5#body = 1.650866e-11
m.xm9.msky130_fd_pr__nfet_g5v0d10v5#dbody = 3.411112e-11
m.xm9.msky130_fd_pr__nfet_g5v0d10v5#sbody = 1.541487e-11
m.xm10.msky130_fd_pr__nfet_g5v0d10v5#body = 1.636787e-11
m.xm10.msky130_fd_pr__nfet_g5v0d10v5#dbody = 3.375914e-11
m.xm10.msky130_fd_pr__nfet_g5v0d10v5#sbody = 1.534447e-11
m.xm11.msky130_fd_pr__pfet_g5v0d10v5#body = 2.100000e+00
m.xm11.msky130_fd_pr__pfet_g5v0d10v5#dbody = 2.100000e+00
m.xm11.msky130_fd_pr__pfet_g5v0d10v5#sbody = 2.100000e+00
m.xm12.msky130_fd_pr__pfet_g5v0d10v5#body = 2.100000e+00
m.xm12.msky130_fd_pr__pfet_g5v0d10v5#dbody = 2.100000e+00
m.xm12.msky130_fd_pr__pfet_g5v0d10v5#sbody = 2.100000e+00
m.xm13.msky130_fd_pr__nfet_g5v0d10v5#body = 3.578911e-12
m.xm13.msky130_fd_pr__nfet_g5v0d10v5#dbody = 8.947265e-12
m.xm13.msky130_fd_pr__nfet_g5v0d10v5#sbody = 1.789466e-12
m.xm14.msky130_fd_pr__pfet_g5v0d10v5#body = 2.100000e+00
m.xm14.msky130_fd_pr__pfet_g5v0d10v5#dbody = 2.100000e+00
m.xm14.msky130_fd_pr__pfet_g5v0d10v5#sbody = 2.100000e+00
m.xm15.msky130_fd_pr__nfet_g5v0d10v5#body = 2.863068e-17
m.xm15.msky130_fd_pr__nfet_g5v0d10v5#dbody = 7.157418e-17
m.xm15.msky130_fd_pr__nfet_g5v0d10v5#sbody = 1.431786e-17
m.xm16.msky130_fd_pr__nfet_g5v0d10v5#body = 4.147426e-11
m.xm16.msky130_fd_pr__nfet_g5v0d10v5#dbody = 7.324578e-11
m.xm16.msky130_fd_pr__nfet_g5v0d10v5#sbody = 5.117701e-11
m.xm17.msky130_fd_pr__pfet_g5v0d10v5#body = 2.100000e+00
m.xm17.msky130_fd_pr__pfet_g5v0d10v5#dbody = 2.100000e+00
m.xm17.msky130_fd_pr__pfet_g5v0d10v5#sbody = 2.100000e+00
m.xm18.msky130_fd_pr__nfet_g5v0d10v5#body = 1.353923e-11
m.xm18.msky130_fd_pr__nfet_g5v0d10v5#dbody = 3.384806e-11
m.xm18.msky130_fd_pr__nfet_g5v0d10v5#sbody = 6.769628e-12
m.xm19.msky130_fd_pr__nfet_g5v0d10v5#body = 1.587551e-11
m.xm19.msky130_fd_pr__nfet_g5v0d10v5#dbody = 3.169452e-11
m.xm19.msky130_fd_pr__nfet_g5v0d10v5#sbody = 1.593201e-11
m.xm20.msky130_fd_pr__nfet_g5v0d10v5#body = 1.131351e-11
m.xm20.msky130_fd_pr__nfet_g5v0d10v5#dbody = 2.828377e-11
m.xm20.msky130_fd_pr__nfet_g5v0d10v5#sbody = 5.656768e-12
m.xm22.msky130_fd_pr__nfet_g5v0d10v5#body = 3.999839e-12
m.xm22.msky130_fd_pr__nfet_g5v0d10v5#dbody = 9.999592e-12
m.xm22.msky130_fd_pr__nfet_g5v0d10v5#sbody = 1.999924e-12
m.xm24.msky130_fd_pr__pfet_g5v0d10v5#body = 2.100000e+00
m.xm24.msky130_fd_pr__pfet_g5v0d10v5#dbody = 2.100000e+00
m.xm24.msky130_fd_pr__pfet_g5v0d10v5#sbody = 2.100000e+00
m.xm26.msky130_fd_pr__pfet_g5v0d10v5#body = 2.100000e+00
m.xm26.msky130_fd_pr__pfet_g5v0d10v5#dbody = 2.100000e+00
m.xm26.msky130_fd_pr__pfet_g5v0d10v5#sbody = 2.100000e+00
mir = 9.471886e-01
net1 = 7.203572e-01
net2 = 2.203026e-06
net3 = 7.801763e-01
net4 = 3.194240e-01
net5 = 9.499249e-01
net6 = 9.028771e-01
net7 = 7.801490e-01
net8 = 1.022771e+00
net9 = 1.034034e+00
net10 = 2.861840e-01
net11 = 1.083010e+00
net12 = 1.083010e+00
net13 = 0.000000e+00
out = 1.083010e+00
pos = 1.189297e+00
q.xq2.qsky130_fd_pr__pnp_05v5_w0p68l0p68#collcx = 2.239934e-03
q.xq3.qsky130_fd_pr__pnp_05v5_w0p68l0p68#collcx = 2.814435e-04
q.xq4.qsky130_fd_pr__pnp_05v5_w0p68l0p68#collcx = 2.814435e-04
q.xq8.qsky130_fd_pr__pnp_05v5_w0p68l0p68#collcx = 2.814435e-04
q.xq10.qsky130_fd_pr__pnp_05v5_w0p68l0p68#collcx = 2.814435e-04
q.xq12.qsky130_fd_pr__pnp_05v5_w0p68l0p68#collcx = 2.814435e-04
q.xq14.qsky130_fd_pr__pnp_05v5_w0p68l0p68#collcx = 2.814435e-04
q.xq16.qsky130_fd_pr__pnp_05v5_w0p68l0p68#collcx = 2.814435e-04
q.xq18.qsky130_fd_pr__pnp_05v5_w0p68l0p68#collcx = 2.814435e-04
vb = 9.049520e-01
vdd = 2.100000e+00
vs#branch = -1.00635e-02
vt#branch = 0.000000e+00
xc1.a = 0.000000e+00
xc1.b1 = 0.000000e+00
xc3.a = 1.083010e+00
xc3.b1 = 1.083010e+00
xr1.xsky130_fd_pr__res_xhigh_po_0p69.ra = 7.854518e-01
xr2.xsky130_fd_pr__res_xhigh_po_0p69.ra = 7.854790e-01
xr3.xsky130_fd_pr__res_xhigh_po_0p69.ra = 3.577801e-03
xr4.xsky130_fd_pr__res_xhigh_po_0p69.ra = 7.221501e-01
xr5.xsky130_fd_pr__res_xhigh_po_0p69.ra = 3.577668e-03
xr6.xsky130_fd_pr__res_xhigh_po_0p69.ra = 5.635843e-03
xr7.xsky130_fd_pr__res_xhigh_po_0p69.ra = 1.083010e+00
xr8.xsky130_fd_pr__res_xhigh_po_0p69.ra = 1.198671e+00
xr9.xsky130_fd_pr__res_xhigh_po_0p69.ra = 9.828935e-03
Doing analysis at TEMP = 27.000000 and TNOM = 27.000000


No. of Data Rows : 91
Note: Starting true gmin stepping
Trying gmin =   1.0000E-03 Note: One successful gmin step
Trying gmin =   1.0000E-04 Note: One successful gmin step
Trying gmin =   1.0000E-05 Note: One successful gmin step
Trying gmin =   1.0000E-06 Note: One successful gmin step
Trying gmin =   1.0000E-07 Note: One successful gmin step
Trying gmin =   1.0000E-08 Warning: Further gmin increment
Trying gmin =   5.6234E-08 Note: One successful gmin step
Trying gmin =   2.3714E-08 Warning: Further gmin increment
Trying gmin =   4.5316E-08 Note: One successful gmin step
Trying gmin =   3.2781E-08 Warning: Further gmin increment
Trying gmin =   4.1792E-08 Warning: Further gmin increment
Trying gmin =   4.4408E-08 Note: One successful gmin step
Trying gmin =   4.3080E-08 Note: One successful gmin step
Trying gmin =   4.1163E-08 Warning: Further gmin increment
Trying gmin =   4.2593E-08 Warning: Further gmin increment
Trying gmin =   4.2958E-08 Note: One successful gmin step
Trying gmin =   4.2775E-08 Note: One successful gmin step
Trying gmin =   4.2502E-08 Warning: Further gmin increment
Trying gmin =   4.2706E-08 Warning: Further gmin increment
Trying gmin =   4.2758E-08 Warning: Further gmin increment
Trying gmin =   4.2770E-08 Note: One successful gmin step
Trying gmin =   4.2764E-08 Note: One successful gmin step
Trying gmin =   4.2754E-08 Warning: Further gmin increment
Trying gmin =   4.2762E-08 Warning: Further gmin increment
Trying gmin =   4.2763E-08 Note: One successful gmin step
Trying gmin =   4.2763E-08 Warning: Last gmin step failed
Warning: True gmin stepping failed
Note: Starting dynamic gmin stepping
Trying gmin =   1.0000E-03 Note: One successful gmin step
Trying gmin =   1.0000E-04 Note: One successful gmin step
Trying gmin =   1.0000E-05 Warning: Further gmin increment
Trying gmin =   5.6234E-05 Note: One successful gmin step
Trying gmin =   2.3714E-05 Note: One successful gmin step
Trying gmin =   6.4938E-06 Warning: Further gmin increment
Trying gmin =   1.7154E-05 Note: One successful gmin step
Trying gmin =   1.0554E-05 Warning: Further gmin increment
Trying gmin =   1.5193E-05 Note: One successful gmin step
Trying gmin =   1.2663E-05 Warning: Further gmin increment
Trying gmin =   1.4517E-05 Note: One successful gmin step
Trying gmin =   1.3558E-05 Note: One successful gmin step
Trying gmin =   1.2238E-05 Note: One successful gmin step
Trying gmin =   1.0495E-05 Note: One successful gmin step
Trying gmin =   8.3340E-06 Note: One successful gmin step
Trying gmin =   5.8977E-06 Note: One successful gmin step
Trying gmin =   3.5110E-06 Note: One successful gmin step
Trying gmin =   1.6127E-06 Note: One successful gmin step
Trying gmin =   5.0203E-07 Note: One successful gmin step
Trying gmin =   8.7195E-08 Warning: Further gmin increment
Trying gmin =   3.2409E-07 Note: One successful gmin step
Trying gmin =   1.6811E-07 Warning: Further gmin increment
Trying gmin =   2.7504E-07 Note: One successful gmin step
Trying gmin =   2.1502E-07 Note: One successful gmin step
Trying gmin =   1.4864E-07 Warning: Further gmin increment
Trying gmin =   1.9606E-07 Warning: Further gmin increment
Trying gmin =   2.1012E-07 Note: One successful gmin step
Trying gmin =   2.0297E-07 Note: One successful gmin step
Trying gmin =   1.9270E-07 Warning: Further gmin increment
Trying gmin =   2.0035E-07 Note: One successful gmin step
Trying gmin =   1.9649E-07 Note: One successful gmin step
Trying gmin =   1.9083E-07 Warning: Further gmin increment
Trying gmin =   1.9506E-07 Warning: Further gmin increment
Trying gmin =   1.9613E-07 Warning: Further gmin increment
Trying gmin =   1.9640E-07 Warning: Further gmin increment
Trying gmin =   1.9647E-07 Note: One successful gmin step
Trying gmin =   1.9643E-07 Note: One successful gmin step
Trying gmin =   1.9638E-07 Warning: Further gmin increment
Trying gmin =   1.9642E-07 Note: One successful gmin step
Trying gmin =   1.9640E-07 Warning: Further gmin increment
Trying gmin =   1.9642E-07 Note: One successful gmin step
Trying gmin =   1.9641E-07 Note: One successful gmin step
Trying gmin =   1.9640E-07 Warning: Further gmin increment
Trying gmin =   1.9641E-07 Note: One successful gmin step
Trying gmin =   1.9640E-07 Warning: Last gmin step failed
Warning: Dynamic gmin stepping failed
Note: Starting source stepping
Supplies reduced to   0.0000% Note: One successful source step
Supplies reduced to   0.1000% Note: One successful source step
Supplies reduced to   0.2000% Note: One successful source step
Supplies reduced to   0.3500% Note: One successful source step
Supplies reduced to   0.5750% Note: One successful source step
Supplies reduced to   0.9125% Note: One successful source step
Supplies reduced to   1.4188% Note: One successful source step
Supplies reduced to   2.1781% Note: One successful source step
Supplies reduced to   3.3172% Note: One successful source step
Supplies reduced to   5.0258% Note: One successful source step
Supplies reduced to   7.5887% Note: One successful source step
Supplies reduced to  11.4330% Note: One successful source step
Supplies reduced to  17.1995% Note: One successful source step
Supplies reduced to  25.8493% Note: One successful source step
Supplies reduced to  38.8239% Supplies reduced to  25.8493% Note: One successful source step
Supplies reduced to  26.4980% Note: One successful source step
Supplies reduced to  27.4711% Note: One successful source step
Supplies reduced to  28.9307% Note: One successful source step
Supplies reduced to  31.1202% Note: One successful source step
Supplies reduced to  34.4044% Note: One successful source step
Supplies reduced to  39.3307% Note: One successful source step
Supplies reduced to  46.7202% Note: One successful source step
Supplies reduced to  54.1096% Note: One successful source step
Supplies reduced to  65.1938% Note: One successful source step
Supplies reduced to  81.8201% Supplies reduced to  65.1938% Note: One successful source step
Supplies reduced to  66.1938% Note: One successful source step
Supplies reduced to  67.6938% Note: One successful source step
Supplies reduced to  69.9438% Note: One successful source step
Supplies reduced to  73.3188% Note: One successful source step
Supplies reduced to  78.3813% Note: One successful source step
Supplies reduced to  85.9751% Supplies reduced to  78.3813% Note: One successful source step
Supplies reduced to  79.3813% Supplies reduced to  78.3813% Note: One successful source step
Supplies reduced to  78.5313% Note: One successful source step
Supplies reduced to  78.7563% Note: One successful source step
Supplies reduced to  79.0938% Supplies reduced to  78.7563% Note: One successful source step
Supplies reduced to  78.8070% Note: One successful source step
Supplies reduced to  78.8829% Note: One successful source step
Supplies reduced to  78.9968% Note: One successful source step
Supplies reduced to  79.1677% Supplies reduced to  78.9968% Note: One successful source step
Supplies reduced to  79.0224% Note: One successful source step
Supplies reduced to  79.0609% Supplies reduced to  79.0224% Note: One successful source step
Supplies reduced to  79.0282% Supplies reduced to  79.0224% Note: One successful source step
Supplies reduced to  79.0233% Note: One successful source step
Supplies reduced to  79.0246% Supplies reduced to  79.0233% Note: One successful source step
Supplies reduced to  79.0235% Note: One successful source step
Supplies reduced to  79.0238% Supplies reduced to  79.0235% Note: One successful source step
Supplies reduced to  79.0235% Note: One successful source step
Supplies reduced to  79.0236% Note: One successful source step
Supplies reduced to  79.0237% Supplies reduced to  79.0236% Note: One successful source step
Supplies reduced to  79.0236% Note: One successful source step
Supplies reduced to  79.0236% Note: One successful source step
Supplies reduced to  79.0237% Note: One successful source step
Warning: source stepping failed
doAnalyses: Too many iterations without convergence

dc simulation(s) aborted
Error(parse.c--checkvalid): vldo_sup_2_8: zero length vector.
Error: RHS "abs((vldo_sup_2_8-vldo_sup_2)/0.8)" invalid
Error(parse.c--checkvalid): line_reg: zero length vector.
Error(parse.c--checkvalid): vin: zero length vector.
Error: RHS "vin-1.764" invalid
Error(parse.c--checkvalid): dropout: zero length vector.
Error: no such vector dropout
Note: No ".plot", ".print", or ".fourier" lines; no simulations run
pm                  =  -8.832239e+01
Doing analysis at TEMP = 27.000000 and TNOM = 27.000000


No. of Data Rows : 91
psrr100             =  -7.689421e+01
psrr100k            =  -2.670459e+01
Doing analysis at TEMP = 27.000000 and TNOM = 27.000000


No. of Data Rows : 86
temp_coeff = 9.669820e+01
Doing analysis at TEMP = 27.000000 and TNOM = 27.000000


Error: measure  vldo_sup_2  (AT) : out of interval
 meas dc vldo_sup_2 find ldo_out at=2 failed!


Error: measure  vldo_sup_2_8  (AT) : out of interval
 meas dc vldo_sup_2_8 find ldo_out at=2.8 failed!


Error: measure  vin  (WHEN) : out of interval
 meas dc vin when v(ldo_out)=1.764 failed!

