Note: Starting true gmin stepping
Trying gmin =   1.0000E-03 Note: One successful gmin step
Trying gmin =   1.0000E-04 Note: One successful gmin step
Trying gmin =   1.0000E-05 Note: One successful gmin step
Trying gmin =   1.0000E-06 Note: One successful gmin step
Trying gmin =   1.0000E-07 Note: One successful gmin step
Trying gmin =   1.0000E-08 Warning: Further gmin increment
Trying gmin =   5.6234E-08 Warning: Further gmin increment
Trying gmin =   8.6596E-08 Note: One successful gmin step
Trying gmin =   6.9783E-08 Note: One successful gmin step
Trying gmin =   6.2643E-08 Note: One successful gmin step
Trying gmin =   5.3280E-08 Note: One successful gmin step
Trying gmin =   4.1792E-08 Note: One successful gmin step
Trying gmin =   2.9033E-08 Note: One successful gmin step
Trying gmin =   2.0169E-08 Note: One successful gmin step
Trying gmin =   1.1678E-08 Note: One successful gmin step
Trying gmin =   5.1455E-09 Note: One successful gmin step
Trying gmin =   1.5048E-09 Note: One successful gmin step
Trying gmin =   2.3801E-10 Note: One successful gmin step
Trying gmin =   2.3801E-11 Note: One successful gmin step
Trying gmin =   2.3801E-12 Note: One successful gmin step
Trying gmin =   1.0000E-12 Note: One successful gmin step
Note: True gmin stepping completed
 Reference value :  0.00000e+00
No compatibility mode selected!


Circuit: * ldo netlist 

Doing analysis at TEMP = 0.000000 and TNOM = 27.000000


No. of Data Rows : 1
bg_out = 5.153561e-01
inn = 6.991154e-01
inp = 6.980109e-01
l1#branch = 1.387779e-17
ldo_out = 7.799725e-01
m.xm1.msky130_fd_pr__nfet_g5v0d10v5#body = 1.074116e-11
m.xm1.msky130_fd_pr__nfet_g5v0d10v5#dbody = 2.652567e-11
m.xm1.msky130_fd_pr__nfet_g5v0d10v5#sbody = 5.697810e-12
m.xm2.msky130_fd_pr__pfet_g5v0d10v5#body = 2.100000e+00
m.xm2.msky130_fd_pr__pfet_g5v0d10v5#dbody = 2.100000e+00
m.xm2.msky130_fd_pr__pfet_g5v0d10v5#sbody = 2.100000e+00
m.xm3.msky130_fd_pr__pfet_g5v0d10v5#body = 2.100000e+00
m.xm3.msky130_fd_pr__pfet_g5v0d10v5#dbody = 2.100000e+00
m.xm3.msky130_fd_pr__pfet_g5v0d10v5#sbody = 2.100000e+00
m.xm4.msky130_fd_pr__pfet_g5v0d10v5#body = 2.100000e+00
m.xm4.msky130_fd_pr__pfet_g5v0d10v5#dbody = 2.100000e+00
m.xm4.msky130_fd_pr__pfet_g5v0d10v5#sbody = 2.100000e+00
m.xm5.msky130_fd_pr__pfet_g5v0d10v5#body = 2.100000e+00
m.xm5.msky130_fd_pr__pfet_g5v0d10v5#dbody = 2.100000e+00
m.xm5.msky130_fd_pr__pfet_g5v0d10v5#sbody = 2.100000e+00
m.xm6.msky130_fd_pr__nfet_g5v0d10v5#body = 1.061389e-11
m.xm6.msky130_fd_pr__nfet_g5v0d10v5#dbody = 2.653473e-11
m.xm6.msky130_fd_pr__nfet_g5v0d10v5#sbody = 5.306949e-12
m.xm7.msky130_fd_pr__pfet_g5v0d10v5#body = 2.100000e+00
m.xm7.msky130_fd_pr__pfet_g5v0d10v5#dbody = 2.100000e+00
m.xm7.msky130_fd_pr__pfet_g5v0d10v5#sbody = 2.100000e+00
m.xm8.msky130_fd_pr__pfet_g5v0d10v5#body = 2.100000e+00
m.xm8.msky130_fd_pr__pfet_g5v0d10v5#dbody = 2.100000e+00
m.xm8.msky130_fd_pr__pfet_g5v0d10v5#sbody = 2.100000e+00
m.xm9.msky130_fd_pr__nfet_g5v0d10v5#body = 1.435440e-11
m.xm9.msky130_fd_pr__nfet_g5v0d10v5#dbody = 3.587384e-11
m.xm9.msky130_fd_pr__nfet_g5v0d10v5#sbody = 7.189361e-12
m.xm10.msky130_fd_pr__nfet_g5v0d10v5#body = 1.119038e-11
m.xm10.msky130_fd_pr__nfet_g5v0d10v5#dbody = 2.796379e-11
m.xm10.msky130_fd_pr__nfet_g5v0d10v5#sbody = 5.607353e-12
m.xm11.msky130_fd_pr__pfet_g5v0d10v5#body = 2.100000e+00
m.xm11.msky130_fd_pr__pfet_g5v0d10v5#dbody = 2.100000e+00
m.xm11.msky130_fd_pr__pfet_g5v0d10v5#sbody = 2.100000e+00
m.xm12.msky130_fd_pr__pfet_g5v0d10v5#body = 2.100000e+00
m.xm12.msky130_fd_pr__pfet_g5v0d10v5#dbody = 2.100000e+00
m.xm12.msky130_fd_pr__pfet_g5v0d10v5#sbody = 2.100000e+00
m.xm13.msky130_fd_pr__nfet_g5v0d10v5#body = 6.080481e-15
m.xm13.msky130_fd_pr__nfet_g5v0d10v5#dbody = 1.520117e-14
m.xm13.msky130_fd_pr__nfet_g5v0d10v5#sbody = 3.040274e-15
m.xm14.msky130_fd_pr__pfet_g5v0d10v5#body = 2.100000e+00
m.xm14.msky130_fd_pr__pfet_g5v0d10v5#dbody = 2.100000e+00
m.xm14.msky130_fd_pr__pfet_g5v0d10v5#sbody = 2.100000e+00
m.xm15.msky130_fd_pr__nfet_g5v0d10v5#body = 1.486610e-11
m.xm15.msky130_fd_pr__nfet_g5v0d10v5#dbody = 3.716524e-11
m.xm15.msky130_fd_pr__nfet_g5v0d10v5#sbody = 7.433049e-12
m.xm16.msky130_fd_pr__nfet_g5v0d10v5#body = 3.498907e-11
m.xm16.msky130_fd_pr__nfet_g5v0d10v5#dbody = 6.999465e-11
m.xm16.msky130_fd_pr__nfet_g5v0d10v5#sbody = 3.497254e-11
m.xm17.msky130_fd_pr__pfet_g5v0d10v5#body = 2.100000e+00
m.xm17.msky130_fd_pr__pfet_g5v0d10v5#dbody = 2.100000e+00
m.xm17.msky130_fd_pr__pfet_g5v0d10v5#sbody = 2.100000e+00
m.xm18.msky130_fd_pr__nfet_g5v0d10v5#body = 1.489354e-11
m.xm18.msky130_fd_pr__nfet_g5v0d10v5#dbody = 3.723383e-11
m.xm18.msky130_fd_pr__nfet_g5v0d10v5#sbody = 7.446774e-12
m.xm19.msky130_fd_pr__nfet_g5v0d10v5#body = 1.212566e-11
m.xm19.msky130_fd_pr__nfet_g5v0d10v5#dbody = 2.998691e-11
m.xm19.msky130_fd_pr__nfet_g5v0d10v5#sbody = 6.390059e-12
m.xm20.msky130_fd_pr__nfet_g5v0d10v5#body = 1.056247e-11
m.xm20.msky130_fd_pr__nfet_g5v0d10v5#dbody = 2.640616e-11
m.xm20.msky130_fd_pr__nfet_g5v0d10v5#sbody = 5.281238e-12
m.xm22.msky130_fd_pr__nfet_g5v0d10v5#body = 1.636296e-13
m.xm22.msky130_fd_pr__nfet_g5v0d10v5#dbody = 4.090737e-13
m.xm22.msky130_fd_pr__nfet_g5v0d10v5#sbody = 8.181522e-14
m.xm24.msky130_fd_pr__pfet_g5v0d10v5#body = 2.100000e+00
m.xm24.msky130_fd_pr__pfet_g5v0d10v5#dbody = 2.100000e+00
m.xm24.msky130_fd_pr__pfet_g5v0d10v5#sbody = 2.100000e+00
m.xm26.msky130_fd_pr__pfet_g5v0d10v5#body = 2.100000e+00
m.xm26.msky130Note: Starting true gmin stepping
Trying gmin =   1.0000E-03 Note: One successful gmin step
Trying gmin =   1.0000E-04 Note: One successful gmin step
Trying gmin =   1.0000E-05 Note: One successful gmin step
Trying gmin =   1.0000E-06 Note: One successful gmin step
Trying gmin =   1.0000E-07 Note: One successful gmin step
Trying gmin =   1.0000E-08 Warning: Further gmin increment
Trying gmin =   5.6234E-08 Warning: Further gmin increment
Trying gmin =   8.6596E-08 Note: One successful gmin step
Trying gmin =   6.9783E-08 Note: One successful gmin step
Trying gmin =   6.2643E-08 Note: One successful gmin step
Trying gmin =   5.3280E-08 Note: One successful gmin step
Trying gmin =   4.1792E-08 Note: One successful gmin step
Trying gmin =   2.9033E-08 Note: One successful gmin step
Trying gmin =   2.0169E-08 Note: One successful gmin step
Trying gmin =   1.1678E-08 Note: One successful gmin step
Trying gmin =   5.1455E-09 Note: One successful gmin step
Trying gmin =   1.5048E-09 Note: One successful gmin step
Trying gmin =   2.3801E-10 Note: One successful gmin step
Trying gmin =   2.3801E-11 Note: One successful gmin step
Trying gmin =   2.3801E-12 Note: One successful gmin step
Trying gmin =   1.0000E-12 Note: One successful gmin step
Note: True gmin stepping completed
_fd_pr__pfet_g5v0d10v5#dbody = 2.100000e+00
m.xm26.msky130_fd_pr__pfet_g5v0d10v5#sbody = 2.100000e+00
mir = 8.461990e-01
net1 = 5.102914e-01
net2 = 1.189273e+00
net3 = 5.111031e-01
net4 = 1.308729e-02
net5 = 9.569587e-01
net6 = 8.491039e-01
net7 = 5.102930e-01
net8 = 8.947409e-01
net9 = 1.147862e+00
net10 = 4.864054e-04
net11 = 1.191481e+00
net12 = 1.191481e+00
net13 = 0.000000e+00
out = 1.191481e+00
pos = 5.186785e-01
q.xq2.qsky130_fd_pr__pnp_05v5_w0p68l0p68#collcx = 5.706918e-09
q.xq3.qsky130_fd_pr__pnp_05v5_w0p68l0p68#collcx = 5.519690e-09
q.xq4.qsky130_fd_pr__pnp_05v5_w0p68l0p68#collcx = 5.519690e-09
q.xq8.qsky130_fd_pr__pnp_05v5_w0p68l0p68#collcx = 5.519690e-09
q.xq10.qsky130_fd_pr__pnp_05v5_w0p68l0p68#collcx = 5.519690e-09
q.xq12.qsky130_fd_pr__pnp_05v5_w0p68l0p68#collcx = 5.519690e-09
q.xq14.qsky130_fd_pr__pnp_05v5_w0p68l0p68#collcx = 5.519690e-09
q.xq16.qsky130_fd_pr__pnp_05v5_w0p68l0p68#collcx = 5.519690e-09
q.xq18.qsky130_fd_pr__pnp_05v5_w0p68l0p68#collcx = 5.519690e-09
vb = 8.449955e-01
vdd = 2.100000e+00
vs#branch = -6.52608e-05
vt#branch = 0.000000e+00
xc1.a = 0.000000e+00
xc1.b1 = 0.000000e+00
xc3.a = 1.191481e+00
xc3.b1 = 1.191481e+00
xr1.xsky130_fd_pr__res_xhigh_po_0p69.ra = 5.124522e-01
xr2.xsky130_fd_pr__res_xhigh_po_0p69.ra = 5.132657e-01
xr3.xsky130_fd_pr__res_xhigh_po_0p69.ra = 2.202259e-03
xr4.xsky130_fd_pr__res_xhigh_po_0p69.ra = 5.102915e-01
xr5.xsky130_fd_pr__res_xhigh_po_0p69.ra = 2.198636e-03
xr6.xsky130_fd_pr__res_xhigh_po_0p69.ra = 2.221293e-03
xr7.xsky130_fd_pr__res_xhigh_po_0p69.ra = 1.191481e+00
xr8.xsky130_fd_pr__res_xhigh_po_0p69.ra = 5.225174e-01
xr9.xsky130_fd_pr__res_xhigh_po_0p69.ra = 3.900687e-03
Doing analysis at TEMP = 0.000000 and TNOM = 27.000000


No. of Data Rows : 91
Note: Starting true gmin stepping
Trying gmin =   1.0000E-03 Note: One successful gmin step
Trying gmin =   1.0000E-04 Note: One successful gmin step
Trying gmin =   1.0000E-05 Note: One successful gmin step
Trying gmin =   1.0000E-06 Note: One successful gmin step
Trying gmin =   1.0000E-07 Note: One successful gmin step
Trying gmin =   1.0000E-08 Warning: Further gmin increment
Trying gmin =   5.6234E-08 Warning: Further gmin increment
Trying gmin =   8.6596E-08 Note: One successful gmin step
Trying gmin =   6.9783E-08 Note: One successful gmin step
Trying gmin =   6.2643E-08 Note: One successful gmin step
Trying gmin =   5.3280E-08 Note: One successful gmin step
Trying gmin =   4.1792E-08 Note: One successful gmin step
Trying gmin =   2.9033E-08 Note: One successful gmin step
Trying gmin =   2.0169E-08 Note: One successful gmin step
Trying gmin =   1.1678E-08 Note: One successful gmin step
Trying gmin =   5.1455E-09 Note: One successful gmin step
Trying gmin =   1.5048E-09 Note: One successful gmin step
Trying gmin =   2.3801E-10 Note: One successful gmin step
Trying gmin =   2.3801E-11 Note: One successful gmin step
Trying gmin =   2.3801E-12 Note: One successful gmin step
Trying gmin =   1.0000E-12 Note: One successful gmin step
Note: True gmin stepping completed
 Reference value :  1.00000e+00Note: Starting true gmin stepping
Trying gmin =   1.0000E-03 Note: One successful gmin step
Trying gmin =   1.0000E-04 Note: One successful gmin step
Trying gmin =   1.0000E-05 Note: One successful gmin step
Trying gmin =   1.0000E-06 Note: One successful gmin step
Trying gmin =   1.0000E-07 Note: One successful gmin step
Trying gmin =   1.0000E-08 Warning: Further gmin increment
Trying gmin =   5.6234E-08 Note: One successful gmin step
Trying gmin =   2.3714E-08 Note: One successful gmin step
Trying gmin =   6.4938E-09 Warning: Further gmin increment
Trying gmin =   1.7154E-08 Note: One successful gmin step
Trying gmin =   1.0554E-08 Note: One successful gmin step
Trying gmin =   5.0937E-09 Note: One successful gmin step
Trying gmin =   1.7077E-09 Note: One successful gmin step
Trying gmin =   3.3152E-10 Note: One successful gmin step
Trying gmin =   3.3152E-11 Note: One successful gmin step
Trying gmin =   3.3152E-12 Note: One successful gmin step
Trying gmin =   1.0000E-12 Note: One successful gmin step
Note: True gmin stepping completed
 Reference value :  1.42000e+00Note: Starting true gmin stepping
Trying gmin =   1.0000E-03 Note: One successful gmin step
Trying gmin =   1.0000E-04 Note: One successful gmin step
Trying gmin =   1.0000E-05 Note: One successful gmin step
Trying gmin =   1.0000E-06 Note: One successful gmin step
Trying gmin =   1.0000E-07 Note: One successful gmin step
Trying gmin =   1.0000E-08 Note: One successful gmin step
Trying gmin =   1.0000E-09 Note: One successful gmin step
Trying gmin =   1.0000E-10 Note: One successful gmin step
Trying gmin =   1.0000E-11 Note: One successful gmin step
Trying gmin =   1.0000E-12 Warning: Further gmin increment
Trying gmin =   5.6234E-12 Note: One successful gmin step
Trying gmin =   2.3714E-12 Note: One successful gmin step
Trying gmin =   1.0000E-12 Warning: Further gmin increment
Trying gmin =   1.9110E-12 Note: One successful gmin step
Trying gmin =   1.3824E-12 Note: One successful gmin step
Trying gmin =   1.0000E-12 Warning: Further gmin increment
Trying gmin =   1.2749E-12 Note: One successful gmin step
Trying gmin =   1.1291E-12 Note: One successful gmin step
Trying gmin =   1.0000E-12 Note: One successful gmin step
Warning: True gmin stepping failed
Note: Starting dynamic gmin stepping
Trying gmin =   1.0000E-03 Note: One successful gmin step
Trying gmin =   1.0000E-04 Note: One successful gmin step
Trying gmin =   1.0000E-05 Note: One successful gmin step
Trying gmin =   1.0000E-06 Note: One successful gmin step
Trying gmin =   1.0000E-07 Note: One successful gmin step
Trying gmin =   1.0000E-08 Note: One successful gmin step
Trying gmin =   1.0000E-09 Note: One successful gmin step
Trying gmin =   1.0000E-10 Note: One successful gmin step
Trying gmin =   1.0000E-11 Note: One successful gmin step
Trying gmin =   1.0000E-12 Note: One successful gmin step
Trying gmin =   1.0000E-12 Note: One successful gmin step
Note: Dynamic gmin stepping completed
 Reference value :  4.00000e-02pm                  =  8.614355e+01
Doing analysis at TEMP = 0.000000 and TNOM = 27.000000


No. of Data Rows : 91
psrr100             =  -1.388243e+01
psrr100k            =  -5.719177e+00
Doing analysis at TEMP = 0.000000 and TNOM = 27.000000


No. of Data Rows : 86
temp_coeff = 1.269854e+02
Doing analysis at TEMP = 0.000000 and TNOM = 27.000000


No. of Data Rows : 141
vldo_sup_2          =  9.219263e-01
vldo_sup_2_8        =  9.062842e-01
line_reg = 1.955262e-02
Error(parse.c--checkvalid): vin: zero length vector.
Error: RHS "vin-1.764" invalid
Error(parse.c--checkvalid): dropout: zero length vector.
Error: no such vector dropout
Note: No ".plot", ".print", or ".fourier" lines; no simulations run

Error: measure  vin  (WHEN) : out of interval
 meas dc vin when v(ldo_out)=1.764 failed!

