 Reference value :  0.00000e+00
No compatibility mode selected!


Circuit: * ldo netlist 

Doing analysis at TEMP = 85.000000 and TNOM = 27.000000


No. of Data Rows : 1
bg_out = 1.200493e+00
inn = 1.146557e+00
inp = 1.146533e+00
l1#branch = 0.000000e+00
ldo_out = 1.806297e+00
m.xm1.msky130_fd_pr__nfet_g5v0d10v5#body = 2.777236e-11
m.xm1.msky130_fd_pr__nfet_g5v0d10v5#dbody = 5.067534e-11
m.xm1.msky130_fd_pr__nfet_g5v0d10v5#sbody = 3.264173e-11
m.xm2.msky130_fd_pr__pfet_g5v0d10v5#body = 2.300000e+00
m.xm2.msky130_fd_pr__pfet_g5v0d10v5#dbody = 2.300000e+00
m.xm2.msky130_fd_pr__pfet_g5v0d10v5#sbody = 2.300000e+00
m.xm3.msky130_fd_pr__pfet_g5v0d10v5#body = 2.300000e+00
m.xm3.msky130_fd_pr__pfet_g5v0d10v5#dbody = 2.300000e+00
m.xm3.msky130_fd_pr__pfet_g5v0d10v5#sbody = 2.300000e+00
m.xm4.msky130_fd_pr__pfet_g5v0d10v5#body = 2.300000e+00
m.xm4.msky130_fd_pr__pfet_g5v0d10v5#dbody = 2.300000e+00
m.xm4.msky130_fd_pr__pfet_g5v0d10v5#sbody = 2.300000e+00
m.xm5.msky130_fd_pr__pfet_g5v0d10v5#body = 2.300000e+00
m.xm5.msky130_fd_pr__pfet_g5v0d10v5#dbody = 2.300000e+00
m.xm5.msky130_fd_pr__pfet_g5v0d10v5#sbody = 2.300000e+00
m.xm6.msky130_fd_pr__nfet_g5v0d10v5#body = 1.910175e-11
m.xm6.msky130_fd_pr__nfet_g5v0d10v5#dbody = 4.775426e-11
m.xm6.msky130_fd_pr__nfet_g5v0d10v5#sbody = 9.550987e-12
m.xm7.msky130_fd_pr__pfet_g5v0d10v5#body = 2.300000e+00
m.xm7.msky130_fd_pr__pfet_g5v0d10v5#dbody = 2.300000e+00
m.xm7.msky130_fd_pr__pfet_g5v0d10v5#sbody = 2.300000e+00
m.xm8.msky130_fd_pr__pfet_g5v0d10v5#body = 2.300000e+00
m.xm8.msky130_fd_pr__pfet_g5v0d10v5#dbody = 2.300000e+00
m.xm8.msky130_fd_pr__pfet_g5v0d10v5#sbody = 2.300000e+00
m.xm9.msky130_fd_pr__nfet_g5v0d10v5#body = 2.602618e-11
m.xm9.msky130_fd_pr__nfet_g5v0d10v5#dbody = 4.896858e-11
m.xm9.msky130_fd_pr__nfet_g5v0d10v5#sbody = 2.910994e-11
m.xm10.msky130_fd_pr__nfet_g5v0d10v5#body = 2.579898e-11
m.xm10.msky130_fd_pr__nfet_g5v0d10v5#dbody = 4.840060e-11
m.xm10.msky130_fd_pr__nfet_g5v0d10v5#sbody = 2.899635e-11
m.xm11.msky130_fd_pr__pfet_g5v0d10v5#body = 2.300000e+00
m.xm11.msky130_fd_pr__pfet_g5v0d10v5#dbody = 2.300000e+00
m.xm11.msky130_fd_pr__pfet_g5v0d10v5#sbody = 2.300000e+00
m.xm12.msky130_fd_pr__pfet_g5v0d10v5#body = 2.300000e+00
m.xm12.msky130_fd_pr__pfet_g5v0d10v5#dbody = 2.300000e+00
m.xm12.msky130_fd_pr__pfet_g5v0d10v5#sbody = 2.300000e+00
m.xm13.msky130_fd_pr__nfet_g5v0d10v5#body = 6.400717e-12
m.xm13.msky130_fd_pr__nfet_g5v0d10v5#dbody = 1.600172e-11
m.xm13.msky130_fd_pr__nfet_g5v0d10v5#sbody = 3.200427e-12
m.xm14.msky130_fd_pr__pfet_g5v0d10v5#body = 2.300000e+00
m.xm14.msky130_fd_pr__pfet_g5v0d10v5#dbody = 2.300000e+00
m.xm14.msky130_fd_pr__pfet_g5v0d10v5#sbody = 2.300000e+00
m.xm15.msky130_fd_pr__nfet_g5v0d10v5#body = 4.200640e-15
m.xm15.msky130_fd_pr__nfet_g5v0d10v5#dbody = 1.050124e-14
m.xm15.msky130_fd_pr__nfet_g5v0d10v5#sbody = 2.100678e-15
m.xm16.msky130_fd_pr__nfet_g5v0d10v5#body = 5.356234e-11
m.xm16.msky130_fd_pr__nfet_g5v0d10v5#dbody = 9.476154e-11
m.xm16.msky130_fd_pr__nfet_g5v0d10v5#sbody = 6.592548e-11
m.xm17.msky130_fd_pr__pfet_g5v0d10v5#body = 2.300000e+00
m.xm17.msky130_fd_pr__pfet_g5v0d10v5#dbody = 2.300000e+00
m.xm17.msky130_fd_pr__pfet_g5v0d10v5#sbody = 2.300000e+00
m.xm18.msky130_fd_pr__nfet_g5v0d10v5#body = 2.100817e-11
m.xm18.msky130_fd_pr__nfet_g5v0d10v5#dbody = 5.250124e-11
m.xm18.msky130_fd_pr__nfet_g5v0d10v5#sbody = 1.050416e-11
m.xm19.msky130_fd_pr__nfet_g5v0d10v5#body = 2.780407e-11
m.xm19.msky130_fd_pr__nfet_g5v0d10v5#dbody = 5.075461e-11
m.xm19.msky130_fd_pr__nfet_g5v0d10v5#sbody = 3.265759e-11
m.xm20.msky130_fd_pr__nfet_g5v0d10v5#body = 1.237671e-11
m.xm20.msky130_fd_pr__nfet_g5v0d10v5#dbody = 3.094171e-11
m.xm20.msky130_fd_pr__nfet_g5v0d10v5#sbody = 6.188431e-12
m.xm22.msky130_fd_pr__nfet_g5v0d10v5#body = 1.267322e-11
m.xm22.msky130_fd_pr__nfet_g5v0d10v5#dbody = 3.168294e-11
m.xm22.msky130_fd_pr__nfet_g5v0d10v5#sbody = 6.336719e-12
m.xm24.msky130_fd_pr__pfet_g5v0d10v5#body = 2.300000e+00
m.xm24.msky130_fd_pr__pfet_g5v0d10v5#dbody = 2.300000e+00
m.xm24.msky130_fd_pr__pfet_g5v0d10v5#sbody = 2.300000e+00
m.xm26.msky130_fd_pr__pfet_g5v0d10v5#body = 2.300000e+00
m.xm26.msky130_fd_pr__pfet_g5v0d10v5#dbody = 2.300000e+00
m.xm26.msky130_fd_pr__pfet_g5v0d10v5#sbody = 2.300000e+00
mir = 1.052352e+00
net1 = 6.298313e-01
net2 = 8.125470e-06
net3 = 7.033901e-01
net4 = 3.310270e-01
net5 = 1.054888e+00
net6 = 8.452770e-01
net7 = 7.033646e-01
net8 = 1.132651e+00
net9 = 1.150827e+00
net10 = 3.564874e-01
net11 = 1.524316e+00
net12 = 1.524316e+00
net13 = 0.000000e+00
out = 1.524316e+00
pos = 1.200714e+00
q.xq2.qsky130_fd_pr__pnp_05v5_w0p68l0p68#collcx = 2.965609e-03
q.xq3.qsky130_fd_pr__pnp_05v5_w0p68l0p68#collcx = 3.742815e-04
q.xq4.qsky130_fd_pr__pnp_05v5_w0p68l0p68#collcx = 3.742815e-04
q.xq8.qsky130_fd_pr__pnp_05v5_w0p68l0p68#collcx = 3.742815e-04
q.xq10.qsky130_fd_pr__pnp_05v5_w0p68l0p68#collcx = 3.742815e-04
q.xq12.qsky130_fd_pr__pnp_05v5_w0p68l0p68#collcx = 3.742815e-04
q.xq14.qsky130_fd_pr__pnp_05v5_w0p68l0p68#collcx = 3.742815e-04
q.xq16.qsky130_fd_pr__pnp_05v5_w0p68l0p68#collcx = 3.742815e-04
q.xq18.qsky130_fd_pr__pnp_05v5_w0p68l0p68#collcx = 3.742815e-04
vb = 8.345634e-01
vdd = 2.300000e+00
vs#branch = -1.89183e-04
vt#branch = 0.000000e+00
xc1.a = 0.000000e+00
xc1.b1 = 0.000000e+00
xc3.a = 1.524316e+00
xc3.b1 = 1.524316e+00
xr1.xsky130_fd_pr__res_xhigh_po_0p69.ra = 7.091813e-01
xr2.xsky130_fd_pr__res_xhigh_po_0p69.ra = 7.092068e-01
xr3.xsky130_fd_pr__res_xhigh_po_0p69.ra = 3.468125e-03
xr4.xsky130_fd_pr__res_xhigh_po_0p69.ra = 6.322121e-01
xr5.xsky130_fd_pr__res_xhigh_po_0p69.ra = 3.467992e-03
xr6.xsky130_fd_pr__res_xhigh_po_0p69.ra = 6.161451e-03
xr7.xsky130_fd_pr__res_xhigh_po_0p69.ra = 1.524316e+00
xr8.xsky130_fd_pr__res_xhigh_po_0p69.ra = 1.210957e+00
xr9.xsky130_fd_pr__res_xhigh_po_0p69.ra = 1.074335e-02
Doing analysis at TEMP = 85.000000 and TNOM = 27.000000


No. of Data Rows : 91
 Reference value :  6.00000e+00Note: Starting true gmin stepping
Trying gmin =   1.0000E-03 Note: One successful gmin step
Trying gmin =   1.0000E-04 Note: One successful gmin step
Trying gmin =   1.0000E-05 Note: One successful gmin step
Trying gmin =   1.0000E-06 Note: One successful gmin step
Trying gmin =   1.0000E-07 Note: One successful gmin step
Trying gmin =   1.0000E-08 Warning: Further gmin increment
Trying gmin =   5.6234E-08 Warning: Further gmin increment
Trying gmin =   8.6596E-08 Note: One successful gmin step
Trying gmin =   6.9783E-08 Note: One successful gmin step
Trying gmin =   5.6234E-08 Note: One successful gmin step
Trying gmin =   4.0679E-08 Note: One successful gmin step
Trying gmin =   2.5029E-08 Note: One successful gmin step
Trying gmin =   1.2079E-08 Note: One successful gmin step
Trying gmin =   4.0497E-09 Note: One successful gmin step
Trying gmin =   7.8615E-10 Note: One successful gmin step
Trying gmin =   7.8615E-11 Note: One successful gmin step
Trying gmin =   7.8615E-12 Note: One successful gmin step
Trying gmin =   1.0000E-12 Note: One successful gmin step
Note: True gmin stepping completed
 Reference value :  1.46000e+00Note: Starting true gmin stepping
Trying gmin =   1.0000E-03 Note: One successful gmin step
Trying gmin =   1.0000E-04 Note: One successful gmin step
Trying gmin =   1.0000E-05 Note: One successful gmin step
Trying gmin =   1.0000E-06 Note: One successful gmin step
Trying gmin =   1.0000E-07 Note: One successful gmin step
Trying gmin =   1.0000E-08 Warning: Further gmin increment
Trying gmin =   5.6234E-08 Warning: Further gmin increment
Trying gmin =   8.6596E-08 Note: One successful gmin step
Trying gmin =   6.9783E-08 Note: One successful gmin step
Trying gmin =   5.6234E-08 Note: One successful gmin step
Trying gmin =   4.0679E-08 Note: One successful gmin step
Trying gmin =   2.5029E-08 Note: One successful gmin step
Trying gmin =   1.2079E-08 Note: One successful gmin step
Trying gmin =   4.0497E-09 Note: One successful gmin step
Trying gmin =   7.8615E-10 Note: One successful gmin step
Trying gmin =   7.8615E-11 Note: One successful gmin step
Trying gmin =   7.8615E-12 Note: One successful gmin step
Trying gmin =   1.0000E-12 Note: One successful gmin step
Note: True gmin stepping completed
 Reference value :  1.44000e+00Note: Starting true gmin stepping
Trying gmin =   1.0000E-03 Note: One successful gmin step
Trying gmin =   1.0000E-04 Note: One successful gmin step
Trying gmin =   1.0000E-05 Note: One successful gmin step
Trying gmin =   1.0000E-06 Note: One successful gmin step
Trying gmin =   1.0000E-07 Note: One successful gmin step
Trying gmin =   1.0000E-08 Warning: Further gmin increment
Trying gmin =   5.6234E-08 Note: One successful gmin step
Trying gmin =   3.1623E-08 Note: One successful gmin step
Trying gmin =   1.3335E-08 Warning: Further gmin increment
Trying gmin =   2.5483E-08 Note: One successful gmin step
Trying gmin =   1.8434E-08 Note: One successful gmin step
Trying gmin =   1.1342E-08 Note: One successful gmin step
Trying gmin =   5.4737E-09 Note: One successful gmin step
Trying gmin =   1.8352E-09 Note: One successful gmin step
Trying gmin =   3.5625E-10 Note: One successful gmin step
Trying gmin =   3.5625E-11 Note: One successful gmin step
Trying gmin =   3.5625E-12 Note: One successful gmin step
Trying gmin =   1.0000E-12 Note: One successful gmin step
Note: True gmin stepping completed
 Reference value :  1.24000e+00pm                  =  5.490989e+01
Doing analysis at TEMP = 85.000000 and TNOM = 27.000000


No. of Data Rows : 91
psrr100             =  -5.076378e+01
psrr100k            =  -2.586745e+01
Doing analysis at TEMP = 85.000000 and TNOM = 27.000000


No. of Data Rows : 86
temp_coeff = 1.388034e+02
Doing analysis at TEMP = 85.000000 and TNOM = 27.000000


No. of Data Rows : 141
vldo_sup_2          =  1.804993e+00
vldo_sup_2_8        =  1.807280e+00
line_reg = 2.858750e-03
Note: No ".plot", ".print", or ".fourier" lines; no simulations run
vin                 =  1.764180e+00
dropout = 1.800000e-04
