 Reference value :  0.00000e+00
No compatibility mode selected!


Circuit: * ldo netlist 

Doing analysis at TEMP = 27.000000 and TNOM = 27.000000


No. of Data Rows : 1
bg_out = 1.192589e+00
inn = 1.222411e+00
inp = 1.222371e+00
l1#branch = 0.000000e+00
ldo_out = 1.793380e+00
m.xm1.msky130_fd_pr__nfet_g5v0d10v5#body = 1.470616e-11
m.xm1.msky130_fd_pr__nfet_g5v0d10v5#dbody = 2.955006e-11
m.xm1.msky130_fd_pr__nfet_g5v0d10v5#sbody = 1.456842e-11
m.xm2.msky130_fd_pr__pfet_g5v0d10v5#body = 2.100000e+00
m.xm2.msky130_fd_pr__pfet_g5v0d10v5#dbody = 2.100000e+00
m.xm2.msky130_fd_pr__pfet_g5v0d10v5#sbody = 2.100000e+00
m.xm3.msky130_fd_pr__pfet_g5v0d10v5#body = 2.100000e+00
m.xm3.msky130_fd_pr__pfet_g5v0d10v5#dbody = 2.100000e+00
m.xm3.msky130_fd_pr__pfet_g5v0d10v5#sbody = 2.100000e+00
m.xm4.msky130_fd_pr__pfet_g5v0d10v5#body = 2.100000e+00
m.xm4.msky130_fd_pr__pfet_g5v0d10v5#dbody = 2.100000e+00
m.xm4.msky130_fd_pr__pfet_g5v0d10v5#sbody = 2.100000e+00
m.xm5.msky130_fd_pr__pfet_g5v0d10v5#body = 2.100000e+00
m.xm5.msky130_fd_pr__pfet_g5v0d10v5#dbody = 2.100000e+00
m.xm5.msky130_fd_pr__pfet_g5v0d10v5#sbody = 2.100000e+00
m.xm6.msky130_fd_pr__nfet_g5v0d10v5#body = 1.171379e-11
m.xm6.msky130_fd_pr__nfet_g5v0d10v5#dbody = 2.928447e-11
m.xm6.msky130_fd_pr__nfet_g5v0d10v5#sbody = 5.856900e-12
m.xm7.msky130_fd_pr__pfet_g5v0d10v5#body = 2.100000e+00
m.xm7.msky130_fd_pr__pfet_g5v0d10v5#dbody = 2.100000e+00
m.xm7.msky130_fd_pr__pfet_g5v0d10v5#sbody = 2.100000e+00
m.xm8.msky130_fd_pr__pfet_g5v0d10v5#body = 2.100000e+00
m.xm8.msky130_fd_pr__pfet_g5v0d10v5#dbody = 2.100000e+00
m.xm8.msky130_fd_pr__pfet_g5v0d10v5#sbody = 2.100000e+00
m.xm9.msky130_fd_pr__nfet_g5v0d10v5#body = 1.535657e-11
m.xm9.msky130_fd_pr__nfet_g5v0d10v5#dbody = 3.206809e-11
m.xm9.msky130_fd_pr__nfet_g5v0d10v5#sbody = 1.400163e-11
m.xm10.msky130_fd_pr__nfet_g5v0d10v5#body = 1.515044e-11
m.xm10.msky130_fd_pr__nfet_g5v0d10v5#dbody = 3.155275e-11
m.xm10.msky130_fd_pr__nfet_g5v0d10v5#sbody = 1.389856e-11
m.xm11.msky130_fd_pr__pfet_g5v0d10v5#body = 2.100000e+00
m.xm11.msky130_fd_pr__pfet_g5v0d10v5#dbody = 2.100000e+00
m.xm11.msky130_fd_pr__pfet_g5v0d10v5#sbody = 2.100000e+00
m.xm12.msky130_fd_pr__pfet_g5v0d10v5#body = 2.100000e+00
m.xm12.msky130_fd_pr__pfet_g5v0d10v5#dbody = 2.100000e+00
m.xm12.msky130_fd_pr__pfet_g5v0d10v5#sbody = 2.100000e+00
m.xm13.msky130_fd_pr__nfet_g5v0d10v5#body = 3.160313e-12
m.xm13.msky130_fd_pr__nfet_g5v0d10v5#dbody = 7.900772e-12
m.xm13.msky130_fd_pr__nfet_g5v0d10v5#sbody = 1.580167e-12
m.xm14.msky130_fd_pr__pfet_g5v0d10v5#body = 2.100000e+00
m.xm14.msky130_fd_pr__pfet_g5v0d10v5#dbody = 2.100000e+00
m.xm14.msky130_fd_pr__pfet_g5v0d10v5#sbody = 2.100000e+00
m.xm15.msky130_fd_pr__nfet_g5v0d10v5#body = 1.392566e-17
m.xm15.msky130_fd_pr__nfet_g5v0d10v5#dbody = 3.481323e-17
m.xm15.msky130_fd_pr__nfet_g5v0d10v5#sbody = 6.963756e-18
m.xm16.msky130_fd_pr__nfet_g5v0d10v5#body = 4.153883e-11
m.xm16.msky130_fd_pr__nfet_g5v0d10v5#dbody = 7.327811e-11
m.xm16.msky130_fd_pr__nfet_g5v0d10v5#sbody = 5.133839e-11
m.xm17.msky130_fd_pr__pfet_g5v0d10v5#body = 2.100000e+00
m.xm17.msky130_fd_pr__pfet_g5v0d10v5#dbody = 2.100000e+00
m.xm17.msky130_fd_pr__pfet_g5v0d10v5#sbody = 2.100000e+00
m.xm18.msky130_fd_pr__nfet_g5v0d10v5#body = 1.627927e-11
m.xm18.msky130_fd_pr__nfet_g5v0d10v5#dbody = 4.069797e-11
m.xm18.msky130_fd_pr__nfet_g5v0d10v5#sbody = 8.139648e-12
m.xm19.msky130_fd_pr__nfet_g5v0d10v5#body = 1.475744e-11
m.xm19.msky130_fd_pr__nfet_g5v0d10v5#dbody = 2.967825e-11
m.xm19.msky130_fd_pr__nfet_g5v0d10v5#sbody = 1.459406e-11
m.xm20.msky130_fd_pr__nfet_g5v0d10v5#body = 1.198349e-11
m.xm20.msky130_fd_pr__nfet_g5v0d10v5#dbody = 2.995870e-11
m.xm20.msky130_fd_pr__nfet_g5v0d10v5#sbody = 5.991754e-12
m.xm22.msky130_fd_pr__nfet_g5v0d10v5#body = 3.610383e-12
m.xm22.msky130_fd_pr__nfet_g5v0d10v5#dbody = 9.025953e-12
m.xm22.msky130_fd_pr__nfet_g5v0d10v5#sbody = 1.805196e-12
m.xm24.msky130_fd_pr__pfet_g5v0d10v5#body = 2.100000e+00
m.xm24.msky130_fd_pr__pfet_g5v0d10v5#dbody = 2.100000e+00
m.xm24.msky130_fd_pr__pfet_g5v0d10v5#sbody = 2.100000e+00
m.xm26.msky130_fd_pr__pfet_g5v0d10v5#body = 2.100000e+00
m.xm26.msky130_fd_pr__pfet_g5v0d10v5#dbody = 2.100000e+00
m.xm26.msky130_fd_pr__pfet_g5v0d10v5#sbody = 2.100000e+00
mir = 8.875316e-01
net1 = 7.251225e-01
net2 = 1.071465e-06
net3 = 7.846695e-01
net4 = 2.882659e-01
net5 = 8.916336e-01
net6 = 9.365384e-01
net7 = 7.846276e-01
net8 = 9.588622e-01
net9 = 9.753531e-01
net10 = 2.526945e-01
net11 = 1.302203e+00
net12 = 1.302203e+00
net13 = 0.000000e+00
out = 1.302203e+00
pos = 1.192776e+00
q.xq2.qsky130_fd_pr__pnp_05v5_w0p68l0p68#collcx = 2.093234e-03
q.xq3.qsky130_fd_pr__pnp_05v5_w0p68l0p68#collcx = 2.636008e-04
q.xq4.qsky130_fd_pr__pnp_05v5_w0p68l0p68#collcx = 2.636008e-04
q.xq8.qsky130_fd_pr__pnp_05v5_w0p68l0p68#collcx = 2.636008e-04
q.xq10.qsky130_fd_pr__pnp_05v5_w0p68l0p68#collcx = 2.636008e-04
q.xq12.qsky130_fd_pr__pnp_05v5_w0p68l0p68#collcx = 2.636008e-04
q.xq14.qsky130_fd_pr__pnp_05v5_w0p68l0p68#collcx = 2.636008e-04
q.xq16.qsky130_fd_pr__pnp_05v5_w0p68l0p68#collcx = 2.636008e-04
q.xq18.qsky130_fd_pr__pnp_05v5_w0p68l0p68#collcx = 2.636008e-04
vb = 9.585481e-01
vdd = 2.100000e+00
vs#branch = -1.70900e-04
vt#branch = 0.000000e+00
xc1.a = 0.000000e+00
xc1.b1 = 0.000000e+00
xc3.a = 1.302203e+00
xc3.b1 = 1.302203e+00
xr1.xsky130_fd_pr__res_xhigh_po_0p69.ra = 7.921742e-01
xr2.xsky130_fd_pr__res_xhigh_po_0p69.ra = 7.922160e-01
xr3.xsky130_fd_pr__res_xhigh_po_0p69.ra = 5.108695e-03
xr4.xsky130_fd_pr__res_xhigh_po_0p69.ra = 7.276591e-01
xr5.xsky130_fd_pr__res_xhigh_po_0p69.ra = 5.108404e-03
xr6.xsky130_fd_pr__res_xhigh_po_0p69.ra = 8.022794e-03
xr7.xsky130_fd_pr__res_xhigh_po_0p69.ra = 1.302203e+00
xr8.xsky130_fd_pr__res_xhigh_po_0p69.ra = 1.206125e+00
xr9.xsky130_fd_pr__res_xhigh_po_0p69.ra = 1.399936e-02
Doing analysis at TEMP = 27.000000 and TNOM = 27.000000


No. of Data Rows : 91
Note: Starting true gmin stepping
Trying gmin =   1.0000E-03 Note: One successful gmin step
Trying gmin =   1.0000E-04 Note: One successful gmin step
Trying gmin =   1.0000E-05 Note: One successful gmin step
Trying gmin =   1.0000E-06 Note: One successful gmin step
Trying gmin =   1.0000E-07 Note: One successful gmin step
Trying gmin =   1.0000E-08 Warning: Further gmin increment
Trying gmin =   5.6234E-08 Note: One successful gmin step
Trying gmin =   2.3714E-08 Warning: Further gmin increment
Trying gmin =   4.5316E-08 Warning: Further gmin increment
Trying gmin =   5.3280E-08 Note: One successful gmin step
Trying gmin =   4.9137E-08 Warning: Further gmin increment
Trying gmin =   5.2212E-08 Warning: Further gmin increment
Trying gmin =   5.3011E-08 Note: One successful gmin step
Trying gmin =   5.2610E-08 Note: One successful gmin step
Trying gmin =   5.2015E-08 Warning: Further gmin increment
Trying gmin =   5.2461E-08 Warning: Further gmin increment
Trying gmin =   5.2573E-08 Warning: Further gmin increment
Trying gmin =   5.2601E-08 Note: One successful gmin step
Trying gmin =   5.2587E-08 Note: One successful gmin step
Trying gmin =   5.2566E-08 Warning: Further gmin increment
Trying gmin =   5.2581E-08 Warning: Further gmin increment
Trying gmin =   5.2585E-08 Note: One successful gmin step
Trying gmin =   5.2583E-08 Note: One successful gmin step
Trying gmin =   5.2580E-08 Warning: Further gmin increment
Trying gmin =   5.2583E-08 Note: One successful gmin step
Trying gmin =   5.2582E-08 Warning: Last gmin step failed
Warning: True gmin stepping failed
Note: Starting dynamic gmin stepping
Trying gmin =   1.0000E-03 Note: One successful gmin step
Trying gmin =   1.0000E-04 Note: One successful gmin step
Trying gmin =   1.0000E-05 Warning: Further gmin increment
Trying gmin =   5.6234E-05 Note: One successful gmin step
Trying gmin =   2.3714E-05 Note: One successful gmin step
Trying gmin =   6.4938E-06 Warning: Further gmin increment
Trying gmin =   1.7154E-05 Note: One successful gmin step
Trying gmin =   1.0554E-05 Warning: Further gmin increment
Trying gmin =   1.5193E-05 Note: One successful gmin step
Trying gmin =   1.2663E-05 Note: One successful gmin step
Trying gmin =   9.6358E-06 Note: One successful gmin step
Trying gmin =   6.3960E-06 Note: One successful gmin step
Trying gmin =   3.4589E-06 Note: One successful gmin step
Trying gmin =   1.8706E-06 Note: One successful gmin step
Trying gmin =   7.4391E-07 Warning: Further gmin increment
Trying gmin =   1.4855E-06 Warning: Further gmin increment
Trying gmin =   1.7658E-06 Note: One successful gmin step
Trying gmin =   1.6196E-06 Note: One successful gmin step
Trying gmin =   1.5511E-06 Note: One successful gmin step
Trying gmin =   1.4537E-06 Note: One successful gmin step
Trying gmin =   1.3190E-06 Note: One successful gmin step
Trying gmin =   1.1400E-06 Note: One successful gmin step
Trying gmin =   9.1592E-07 Note: One successful gmin step
Trying gmin =   6.5965E-07 Note: One successful gmin step
Trying gmin =   4.0318E-07 Note: One successful gmin step
Trying gmin =   1.9265E-07 Note: One successful gmin step
Trying gmin =   6.3634E-08 Note: One successful gmin step
Trying gmin =   1.2080E-08 Note: One successful gmin step
Trying gmin =   1.2080E-09 Note: One successful gmin step
Trying gmin =   1.2080E-10 Note: One successful gmin step
Trying gmin =   1.2080E-11 Note: One successful gmin step
Trying gmin =   1.2080E-12 Note: One successful gmin step
Trying gmin =   1.0000E-12 Note: One successful gmin step
Note: Dynamic gmin stepping completed
 Reference value :  2.80000e+00Note: Starting true gmin stepping
Trying gmin =   1.0000E-03 Note: One successful gmin step
Trying gmin =   1.0000E-04 Note: One successful gmin step
Trying gmin =   1.0000E-05 Note: One successful gmin step
Trying gmin =   1.0000E-06 Note: One successful gmin step
Trying gmin =   1.0000E-07 Note: One successful gmin step
Trying gmin =   1.0000E-08 Warning: Further gmin increment
Trying gmin =   5.6234E-08 Note: One successful gmin step
Trying gmin =   2.3714E-08 Note: One successful gmin step
Trying gmin =   1.0000E-08 Note: One successful gmin step
Trying gmin =   2.7384E-09 Note: One successful gmin step
Trying gmin =   7.4989E-10 Note: One successful gmin step
Trying gmin =   1.0746E-10 Note: One successful gmin step
Trying gmin =   1.0746E-11 Note: One successful gmin step
Trying gmin =   1.0746E-12 Note: One successful gmin step
Trying gmin =   1.0000E-12 Note: One successful gmin step
Note: True gmin stepping completed
Note: Starting true gmin stepping
Trying gmin =   1.0000E-03 Note: One successful gmin step
Trying gmin =   1.0000E-04 Note: One successful gmin step
Trying gmin =   1.0000E-05 Note: One successful gmin step
Trying gmin =   1.0000E-06 Note: One successful gmin step
Trying gmin =   1.0000E-07 Note: One successful gmin step
Trying gmin =   1.0000E-08 Warning: Further gmin increment
Trying gmin =   5.6234E-08 Note: One successful gmin step
Trying gmin =   2.3714E-08 Note: One successful gmin step
Trying gmin =   6.4938E-09 Note: One successful gmin step
Trying gmin =   9.3057E-10 Note: One successful gmin step
Trying gmin =   1.3335E-10 Note: One successful gmin step
Trying gmin =   1.3335E-11 Note: One successful gmin step
Trying gmin =   1.3335E-12 Note: One successful gmin step
Trying gmin =   1.0000E-12 Note: One successful gmin step
Note: True gmin stepping completed
 Reference value :  1.32000e+00Note: Starting true gmin stepping
Trying gmin =   1.0000E-03 Note: One successful gmin step
Trying gmin =   1.0000E-04 Note: One successful gmin step
Trying gmin =   1.0000E-05 Note: One successful gmin step
Trying gmin =   1.0000E-06 Note: One successful gmin step
Trying gmin =   1.0000E-07 Note: One successful gmin step
Trying gmin =   1.0000E-08 Note: One successful gmin step
Trying gmin =   1.0000E-09 Warning: Further gmin increment
Trying gmin =   5.6234E-09 Note: One successful gmin step
Trying gmin =   2.3714E-09 Note: One successful gmin step
Trying gmin =   6.4938E-10 Warning: Further gmin increment
Trying gmin =   1.7154E-09 Note: One successful gmin step
Trying gmin =   1.0554E-09 Warning: Further gmin increment
Trying gmin =   1.5193E-09 Note: One successful gmin step
Trying gmin =   1.2663E-09 Note: One successful gmin step
Trying gmin =   9.6358E-10 Note: One successful gmin step
Trying gmin =   6.3960E-10 Note: One successful gmin step
Trying gmin =   3.4589E-10 Note: One successful gmin step
Trying gmin =   1.3756E-10 Note: One successful gmin step
Trying gmin =   3.4499E-11 Note: One successful gmin step
Trying gmin =   4.3331E-12 Note: One successful gmin step
Trying gmin =   1.0000E-12 Note: One successful gmin step
Note: True gmin stepping completed
Note: Starting true gmin stepping
Trying gmin =   1.0000E-03 Note: One successful gmin step
Trying gmin =   1.0000E-04 Note: One successful gmin step
Trying gmin =   1.0000E-05 Note: One successful gmin step
Trying gmin =   1.0000E-06 Note: One successful gmin step
Trying gmin =   1.0000E-07 Note: One successful gmin step
Trying gmin =   1.0000E-08 Note: One successful gmin step
Trying gmin =   3.1623E-09 Note: One successful gmin step
Trying gmin =   5.6234E-10 Warning: Further gmin increment
Trying gmin =   2.0535E-09 Note: One successful gmin step
Trying gmin =   1.0746E-09 Warning: Further gmin increment
Trying gmin =   1.7466E-09 Note: One successful gmin step
Trying gmin =   1.3700E-09 Note: One successful gmin step
Trying gmin =   9.5173E-10 Warning: Further gmin increment
Trying gmin =   1.2507E-09 Note: One successful gmin step
Trying gmin =   1.0910E-09 Note: One successful gmin step
Trying gmin =   9.5173E-10 Note: One successful gmin step
Trying gmin =   7.7540E-10 Note: One successful gmin step
Trying gmin =   5.7022E-10 Note: One successful gmin step
Trying gmin =   3.5960E-10 Note: One successful gmin step
Trying gmin =   1.8009E-10 Note: One successful gmin step
Trying gmin =   6.3822E-11 Note: One successful gmin step
Trying gmin =   1.3465E-11 Note: One successful gmin step
Trying gmin =   1.3465E-12 Note: One successful gmin step
Trying gmin =   1.0000E-12 Note: One successful gmin step
Note: True gmin stepping completed
 Reference value :  1.26000e+00pm                  =  5.563441e+01
Doing analysis at TEMP = 27.000000 and TNOM = 27.000000


No. of Data Rows : 91
psrr100             =  -8.499338e+01
psrr100k            =  -2.538808e+01
Doing analysis at TEMP = 27.000000 and TNOM = 27.000000


No. of Data Rows : 86
temp_coeff = 8.926811e+01
Doing analysis at TEMP = 27.000000 and TNOM = 27.000000


No. of Data Rows : 141
vldo_sup_2          =  1.793373e+00
vldo_sup_2_8        =  1.793342e+00
line_reg = 3.875000e-05
Note: No ".plot", ".print", or ".fourier" lines; no simulations run
vin                 =  1.764125e+00
dropout = 1.250000e-04
