Note: Starting true gmin stepping
Trying gmin =   1.0000E-03 Note: One successful gmin step
Trying gmin =   1.0000E-04 Note: One successful gmin step
Trying gmin =   1.0000E-05 Note: One successful gmin step
Trying gmin =   1.0000E-06 Note: One successful gmin step
Trying gmin =   1.0000E-07 Warning: Further gmin increment
Trying gmin =   5.6234E-07 Note: One successful gmin step
Trying gmin =   2.3714E-07 Note: One successful gmin step
Trying gmin =   6.4938E-08 Note: One successful gmin step
Trying gmin =   1.7783E-08 Warning: Further gmin increment
Trying gmin =   4.6976E-08 Warning: Further gmin increment
Trying gmin =   5.9889E-08 Note: One successful gmin step
Trying gmin =   5.3041E-08 Note: One successful gmin step
Trying gmin =   4.6976E-08 Note: One successful gmin step
Trying gmin =   3.9154E-08 Note: One successful gmin step
Trying gmin =   2.9793E-08 Note: One successful gmin step
Trying gmin =   1.9776E-08 Note: One successful gmin step
Trying gmin =   1.0695E-08 Note: One successful gmin step
Trying gmin =   4.2533E-09 Note: One successful gmin step
Trying gmin =   1.0667E-09 Note: One successful gmin step
Trying gmin =   1.3398E-10 Note: One successful gmin step
Trying gmin =   1.3398E-11 Note: One successful gmin step
Trying gmin =   1.3398E-12 Note: One successful gmin step
Trying gmin =   1.0000E-12 Note: One successful gmin step
Note: True gmin stepping completed
 Reference value :  0.00000e+00
No compatibility mode selected!


Circuit: * ldo netlist 

Doing analysis at TEMP = 0.000000 and TNOM = 27.000000


No. of Data Rows : 1
bg_out = 6.211321e-01
inn = 8.395536e-01
inp = 8.390375e-01
l1#branch = 0.000000e+00
ldo_out = 9.384251e-01
m.xm1.msky130_fd_pr__nfet_g5v0d10v5#body = 1.196024e-11
m.xm1.msky130_fd_pr__nfet_g5v0d10v5#dbody = 2.900850e-11
m.xm1.msky130_fd_pr__nfet_g5v0d10v5#sbody = 6.872223e-12
m.xm2.msky130_fd_pr__pfet_g5v0d10v5#body = 2.100000e+00
m.xm2.msky130_fd_pr__pfet_g5v0d10v5#dbody = 2.100000e+00
m.xm2.msky130_fd_pr__pfet_g5v0d10v5#sbody = 2.100000e+00
m.xm3.msky130_fd_pr__pfet_g5v0d10v5#body = 2.100000e+00
m.xm3.msky130_fd_pr__pfet_g5v0d10v5#dbody = 2.100000e+00
m.xm3.msky130_fd_pr__pfet_g5v0d10v5#sbody = 2.100000e+00
m.xm4.msky130_fd_pr__pfet_g5v0d10v5#body = 2.100000e+00
m.xm4.msky130_fd_pr__pfet_g5v0d10v5#dbody = 2.100000e+00
m.xm4.msky130_fd_pr__pfet_g5v0d10v5#sbody = 2.100000e+00
m.xm5.msky130_fd_pr__pfet_g5v0d10v5#body = 2.100000e+00
m.xm5.msky130_fd_pr__pfet_g5v0d10v5#dbody = 2.100000e+00
m.xm5.msky130_fd_pr__pfet_g5v0d10v5#sbody = 2.100000e+00
m.xm6.msky130_fd_pr__nfet_g5v0d10v5#body = 1.138043e-11
m.xm6.msky130_fd_pr__nfet_g5v0d10v5#dbody = 2.845107e-11
m.xm6.msky130_fd_pr__nfet_g5v0d10v5#sbody = 5.690216e-12
m.xm7.msky130_fd_pr__pfet_g5v0d10v5#body = 2.100000e+00
m.xm7.msky130_fd_pr__pfet_g5v0d10v5#dbody = 2.100000e+00
m.xm7.msky130_fd_pr__pfet_g5v0d10v5#sbody = 2.100000e+00
m.xm8.msky130_fd_pr__pfet_g5v0d10v5#body = 2.100000e+00
m.xm8.msky130_fd_pr__pfet_g5v0d10v5#dbody = 2.100000e+00
m.xm8.msky130_fd_pr__pfet_g5v0d10v5#sbody = 2.100000e+00
m.xm9.msky130_fd_pr__nfet_g5v0d10v5#body = 1.501995e-11
m.xm9.msky130_fd_pr__nfet_g5v0d10v5#dbody = 3.752756e-11
m.xm9.msky130_fd_pr__nfet_g5v0d10v5#sbody = 7.532299e-12
m.xm10.msky130_fd_pr__nfet_g5v0d10v5#body = 1.216730e-11
m.xm10.msky130_fd_pr__nfet_g5v0d10v5#dbody = 3.039593e-11
m.xm10.msky130_fd_pr__nfet_g5v0d10v5#sbody = 6.105972e-12
m.xm11.msky130_fd_pr__pfet_g5v0d10v5#body = 2.100000e+00
m.xm11.msky130_fd_pr__pfet_g5v0d10v5#dbody = 2.100000e+00
m.xm11.msky130_fd_pr__pfet_g5v0d10v5#sbody = 2.100000e+00
m.xm12.msky130_fd_pr__pfet_g5v0d10v5#body = 2.100000e+00
m.xm12.msky130_fd_pr__pfet_g5v0d10v5#dbody = 2.100000e+00
m.xm12.msky130_fd_pr__pfet_g5v0d10v5#sbody = 2.100000e+00
m.xm13.msky130_fd_pr__nfet_g5v0d10v5#body = 1.116006e-14
m.xm13.msky130_fd_pr__nfet_g5v0d10v5#dbody = 2.790008e-14
m.xm13.msky130_fd_pr__nfet_g5v0d10v5#sbody = 5.580102e-15
m.xm14.msky130_fd_pr__pfet_g5v0d10v5#body = 2.100000e+00
m.xm14.msky130_fd_pr__pfet_g5v0d10v5#dbody = 2.100000e+00
m.xm14.msky130_fd_pr__pfet_g5v0d10v5#sbody = 2.100000e+00
m.xm15.msky130_fd_pr__nfet_g5v0d10v5#body = 1.544524e-11
m.xm15.msky130_fd_pr__nfet_g5v0d10v5#dbody = 3.861310e-11
m.xm15.msky130_fd_pr__nfet_g5v0d10v5#sbody = 7.722621e-12
m.xm16.msky130_fd_pr__nfet_g5v0d10v5#body = 3.674454e-11
m.xm16.msky130_fd_pr__nfet_g5v0d10v5#dbody = 7.087239e-11
m.xm16.msky130_fd_pr__nfet_g5v0d10v5#sbody = 3.936123e-11
m.xm17.msky130_fd_pr__pfet_g5v0d10v5#body = 2.100000e+00
m.xm17.msky130_fd_pr__pfet_g5v0d10v5#dbody = 2.100000e+00
m.xm17.msky130_fd_pr__pfet_g5v0d10v5#sbody = 2.100000e+00
m.xm18.msky130_fd_pr__nfet_g5v0d10v5#body = 1.618481e-11
m.xm18.msky130_fd_pr__nfet_g5v0d10v5#dbody = 4.046179e-11
m.xm18.msky130_fd_pr__nfet_g5v0d10v5#sbody = 8.092413e-12
m.xm19.msky130_fd_pr__nfet_g5v0d10v5#body = 1.272195e-11
m.xm19.msky130_fd_pr__nfet_g5v0d10v5#dbody = 3.091278e-11
m.xm19.msky130_fd_pr__nfet_g5v0d10v5#sbody = 7.253080e-12
m.xm20.msky130_fd_pr__nfet_g5v0d10v5#body = 1.163164e-11
m.xm20.msky130_fd_pr__nfet_g5v0d10v5#dbody = 2.907909e-11
m.xm20.msky130_fd_pr__nfet_g5v0d10v5#sbody = 5.815826e-12
m.xm22.msky130_fd_pr__nfet_g5v0d10v5#body = 4.460789e-13
m.xm22.msky130_fd_pr__nfet_g5v0d10v5#dbody = 1.115196e-12
m.xm22.msky130_fd_pr__nfet_g5v0d10v5#sbody = 2.230405e-13
m.xm24.msky130_fd_pr__pfet_g5v0d10v5#body = 2.100000e+00
m.xm24.msky130_fd_pr__pfet_g5v0d10v5#dbody = 2.100000e+00
m.xm24.msky130_fd_pr__pfet_g5v0d10v5#sbody = 2.100000e+00
m.xm26.msky130_fd_pr__pfet_g5v0d10v5#body = 2.100000e+00
m.xm26.msky130Note: Starting true gmin stepping
Trying gmin =   1.0000E-03 Note: One successful gmin step
Trying gmin =   1.0000E-04 Note: One successful gmin step
Trying gmin =   1.0000E-05 Note: One successful gmin step
Trying gmin =   1.0000E-06 Note: One successful gmin step
Trying gmin =   1.0000E-07 Warning: Further gmin increment
Trying gmin =   5.6234E-07 Note: One successful gmin step
Trying gmin =   2.3714E-07 Note: One successful gmin step
Trying gmin =   6.4938E-08 Note: One successful gmin step
Trying gmin =   1.7783E-08 Warning: Further gmin increment
Trying gmin =   4.6976E-08 Warning: Further gmin increment
Trying gmin =   5.9889E-08 Note: One successful gmin step
Trying gmin =   5.3041E-08 Note: One successful gmin step
Trying gmin =   4.6976E-08 Note: One successful gmin step
Trying gmin =   3.9154E-08 Note: One successful gmin step
Trying gmin =   2.9793E-08 Note: One successful gmin step
Trying gmin =   1.9776E-08 Note: One successful gmin step
Trying gmin =   1.0695E-08 Note: One successful gmin step
Trying gmin =   4.2533E-09 Note: One successful gmin step
Trying gmin =   1.0667E-09 Note: One successful gmin step
Trying gmin =   1.3398E-10 Note: One successful gmin step
Trying gmin =   1.3398E-11 Note: One successful gmin step
Trying gmin =   1.3398E-12 Note: One successful gmin step
Trying gmin =   1.0000E-12 Note: One successful gmin step
Note: True gmin stepping completed
_fd_pr__pfet_g5v0d10v5#dbody = 2.100000e+00
m.xm26.msky130_fd_pr__pfet_g5v0d10v5#sbody = 2.100000e+00
mir = 9.211305e-01
net1 = 6.131325e-01
net2 = 1.235604e+00
net3 = 6.137450e-01
net4 = 3.568051e-02
net5 = 9.820675e-01
net6 = 9.104265e-01
net7 = 6.132230e-01
net8 = 9.724880e-01
net9 = 1.200700e+00
net10 = 8.927435e-04
net11 = 1.294774e+00
net12 = 1.294774e+00
net13 = 0.000000e+00
out = 1.294774e+00
pos = 6.240427e-01
q.xq2.qsky130_fd_pr__pnp_05v5_w0p68l0p68#collcx = 3.874826e-07
q.xq3.qsky130_fd_pr__pnp_05v5_w0p68l0p68#collcx = 3.778531e-07
q.xq4.qsky130_fd_pr__pnp_05v5_w0p68l0p68#collcx = 3.778531e-07
q.xq8.qsky130_fd_pr__pnp_05v5_w0p68l0p68#collcx = 3.778531e-07
q.xq10.qsky130_fd_pr__pnp_05v5_w0p68l0p68#collcx = 3.778531e-07
q.xq12.qsky130_fd_pr__pnp_05v5_w0p68l0p68#collcx = 3.778531e-07
q.xq14.qsky130_fd_pr__pnp_05v5_w0p68l0p68#collcx = 3.778531e-07
q.xq16.qsky130_fd_pr__pnp_05v5_w0p68l0p68#collcx = 3.778531e-07
q.xq18.qsky130_fd_pr__pnp_05v5_w0p68l0p68#collcx = 3.778531e-07
vb = 9.305293e-01
vdd = 2.100000e+00
vs#branch = -8.01919e-05
vt#branch = 0.000000e+00
xc1.a = 0.000000e+00
xc1.b1 = 0.000000e+00
xc3.a = 1.294774e+00
xc3.b1 = 1.294774e+00
xr1.xsky130_fd_pr__res_xhigh_po_0p69.ra = 6.158239e-01
xr2.xsky130_fd_pr__res_xhigh_po_0p69.ra = 6.163458e-01
xr3.xsky130_fd_pr__res_xhigh_po_0p69.ra = 2.665720e-03
xr4.xsky130_fd_pr__res_xhigh_po_0p69.ra = 6.131352e-01
xr5.xsky130_fd_pr__res_xhigh_po_0p69.ra = 2.663341e-03
xr6.xsky130_fd_pr__res_xhigh_po_0p69.ra = 2.699407e-03
xr7.xsky130_fd_pr__res_xhigh_po_0p69.ra = 1.294774e+00
xr8.xsky130_fd_pr__res_xhigh_po_0p69.ra = 6.286737e-01
xr9.xsky130_fd_pr__res_xhigh_po_0p69.ra = 4.731785e-03
Doing analysis at TEMP = 0.000000 and TNOM = 27.000000


No. of Data Rows : 91
Note: Starting true gmin stepping
Trying gmin =   1.0000E-03 Note: One successful gmin step
Trying gmin =   1.0000E-04 Note: One successful gmin step
Trying gmin =   1.0000E-05 Note: One successful gmin step
Trying gmin =   1.0000E-06 Note: One successful gmin step
Trying gmin =   1.0000E-07 Warning: Further gmin increment
Trying gmin =   5.6234E-07 Note: One successful gmin step
Trying gmin =   2.3714E-07 Note: One successful gmin step
Trying gmin =   6.4938E-08 Note: One successful gmin step
Trying gmin =   1.7783E-08 Warning: Further gmin increment
Trying gmin =   4.6976E-08 Warning: Further gmin increment
Trying gmin =   5.9889E-08 Note: One successful gmin step
Trying gmin =   5.3041E-08 Note: One successful gmin step
Trying gmin =   4.6976E-08 Note: One successful gmin step
Trying gmin =   3.9154E-08 Note: One successful gmin step
Trying gmin =   2.9793E-08 Note: One successful gmin step
Trying gmin =   1.9776E-08 Note: One successful gmin step
Trying gmin =   1.0695E-08 Note: One successful gmin step
Trying gmin =   4.2533E-09 Note: One successful gmin step
Trying gmin =   1.0667E-09 Note: One successful gmin step
Trying gmin =   1.3398E-10 Note: One successful gmin step
Trying gmin =   1.3398E-11 Note: One successful gmin step
Trying gmin =   1.3398E-12 Note: One successful gmin step
Trying gmin =   1.0000E-12 Note: One successful gmin step
Note: True gmin stepping completed
 Reference value :  1.00000e+00Note: Starting true gmin stepping
Trying gmin =   1.0000E-03 Note: One successful gmin step
Trying gmin =   1.0000E-04 Note: One successful gmin step
Trying gmin =   1.0000E-05 Note: One successful gmin step
Trying gmin =   1.0000E-06 Note: One successful gmin step
Trying gmin =   1.0000E-07 Warning: Further gmin increment
Trying gmin =   5.6234E-07 Note: One successful gmin step
Trying gmin =   2.3714E-07 Note: One successful gmin step
Trying gmin =   6.4938E-08 Note: One successful gmin step
Trying gmin =   1.7783E-08 Warning: Further gmin increment
Trying gmin =   4.6976E-08 Note: One successful gmin step
Trying gmin =   2.8903E-08 Warning: Further gmin increment
Trying gmin =   4.1605E-08 Warning: Further gmin increment
Trying gmin =   4.5571E-08 Note: One successful gmin step
Trying gmin =   4.3543E-08 Warning: Further gmin increment
Trying gmin =   4.5055E-08 Note: One successful gmin step
Trying gmin =   4.4293E-08 Warning: Further gmin increment
Trying gmin =   4.4864E-08 Note: One successful gmin step
Trying gmin =   4.4577E-08 Note: One successful gmin step
Trying gmin =   4.4151E-08 Warning: Further gmin increment
Trying gmin =   4.4470E-08 Warning: Further gmin increment
Trying gmin =   4.4550E-08 Note: One successful gmin step
Trying gmin =   4.4510E-08 Warning: Further gmin increment
Trying gmin =   4.4540E-08 Note: One successful gmin step
Trying gmin =   4.4525E-08 Warning: Further gmin increment
Trying gmin =   4.4537E-08 Note: One successful gmin step
Trying gmin =   4.4531E-08 Note: One successful gmin step
Trying gmin =   4.4523E-08 Warning: Further gmin increment
Trying gmin =   4.4529E-08 Note: One successful gmin step
Trying gmin =   4.4526E-08 Warning: Further gmin increment
Trying gmin =   4.4528E-08 Note: One successful gmin step
Trying gmin =   4.4527E-08 Warning: Last gmin step failed
Warning: True gmin stepping failed
Note: Starting dynamic gmin stepping
Trying gmin =   1.0000E-03 Note: One successful gmin step
Trying gmin =   1.0000E-04 Note: One successful gmin step
Trying gmin =   1.0000E-05 Warning: Further gmin increment
Trying gmin =   5.6234E-05 Note: One successful gmin step
Trying gmin =   2.3714E-05 Note: One successful gmin step
Trying gmin =   6.4938E-06 Warning: Further gmin increment
Trying gmin =   1.7154E-05 Note: One successful gmin step
Trying gmin =   1.0554E-05 Warning: Further gmin increment
Trying gmin =   1.5193E-05 Note: One successful gmin step
Trying gmin =   1.2663E-05 Note: One successful gmin step
Trying gmin =   9.6358E-06 Note: One successful gmin step
Trying gmin =   6.3960E-06 Note: One successful gmin step
Trying gmin =   3.4589E-06 Warning: Further gmin increment
Trying gmin =   5.4849E-06 Note: One successful gmin step
Trying gmin =   4.3557E-06 Note: One successful gmin step
Trying gmin =   3.8815E-06 Note: One successful gmin step
Trying gmin =   3.2652E-06 Note: One successful gmin step
Trying gmin =   2.5193E-06 Note: One successful gmin step
Trying gmin =   1.7074E-06 Note: One successful gmin step
Trying gmin =   9.5265E-07 Warning: Further gmin increment
Trying gmin =   1.4757E-06 Warning: Further gmin increment
Trying gmin =   1.6463E-06 Note: One successful gmin step
Trying gmin =   1.5587E-06 Note: One successful gmin step
Trying gmin =   1.4359E-06 Warning: Further gmin increment
Trying gmin =   1.5270E-06 Note: One successful gmin step
Trying gmin =   1.4807E-06 Warning: Further gmin increment
Trying gmin =   1.5153E-06 Note: One successful gmin step
Trying gmin =   1.5095E-06 Note: One successful gmin step
Trying gmin =   1.5008E-06 Note: One successful gmin step
Trying gmin =   1.4879E-06 Note: One successful gmin step
Trying gmin =   1.4687E-06 Note: One successful gmin step
Trying gmin =   1.4404E-06 Note: One successful gmin step
Trying gmin =   1.3989E-06 Note: One successful gmin step
Trying gmin =   1.3389E-06 Note: One successful gmin step
Trying gmin =   1.2538E-06 Note: One successful gmin step
Trying gmin =   1.1361E-06 Note: One successful gmin step
Trying gmin =   9.7992E-07 Note: One successful gmin step
Trying gmin =   7.8499E-07 Note: One successful gmin step
Trying gmin =   5.6283E-07 Note: One successful gmin step
Trying gmin =   3.4170E-07 Note: One successful gmin step
Trying gmin =   1.6164E-07 Note: One successful gmin step
Trying gmin =   5.2589E-08 Note: One successful gmin step
Trying gmin =   9.7594E-09 Note: One successful gmin step
Trying gmin =   9.7594E-10 Note: One successful gmin step
Trying gmin =   9.7594E-11 Note: One successful gmin step
Trying gmin =   9.7594E-12 Note: One successful gmin step
Trying gmin =   1.0000E-12 Note: One successful gmin step
Note: Dynamic gmin stepping completed
 Reference value :  2.80000e+00Note: Starting true gmin stepping
Trying gmin =   1.0000E-03 Note: One successful gmin step
Trying gmin =   1.0000E-04 Note: One successful gmin step
Trying gmin =   1.0000E-05 Note: One successful gmin step
Trying gmin =   1.0000E-06 Note: One successful gmin step
Trying gmin =   1.0000E-07 Note: One successful gmin step
Trying gmin =   1.0000E-08 Warning: Further gmin increment
Trying gmin =   5.6234E-08 Note: One successful gmin step
Trying gmin =   2.3714E-08 Note: One successful gmin step
Trying gmin =   1.0000E-08 Note: One successful gmin step
Trying gmin =   2.7384E-09 Note: One successful gmin step
Trying gmin =   3.9242E-10 Error: -1.66394e+174, 2 out of range for ^
Warning: Further gmin increment
Trying gmin =   1.6849E-09 Note: One successful gmin step
Trying gmin =   8.1312E-10 Warning: Further gmin increment
Trying gmin =   1.4043E-09 Warning: Further gmin increment
Trying gmin =   1.6099E-09 Note: One successful gmin step
Trying gmin =   1.5036E-09 Note: One successful gmin step
Trying gmin =   1.3572E-09 Warning: Further gmin increment
Trying gmin =   1.4655E-09 Warning: Further gmin increment
Trying gmin =   1.4940E-09 Note: One successful gmin step
Trying gmin =   1.4797E-09 Note: One successful gmin step
Trying gmin =   1.4585E-09 Warning: Further gmin increment
Trying gmin =   1.4744E-09 Note: One successful gmin step
Trying gmin =   1.4664E-09 Warning: Further gmin increment
Trying gmin =   1.4724E-09 Warning: Further gmin increment
Trying gmin =   1.4739E-09 Note: One successful gmin step
Trying gmin =   1.4731E-09 Note: One successful gmin step
Trying gmin =   1.4720E-09 Warning: Further gmin increment
Trying gmin =   1.4728E-09 Note: One successful gmin step
Trying gmin =   1.4724E-09 Warning: Further gmin increment
Trying gmin =   1.4727E-09 Note: One successful gmin step
Trying gmin =   1.4726E-09 Note: One successful gmin step
Trying gmin =   1.4724E-09 Warning: Further gmin increment
Trying gmin =   1.4725E-09 Note: One successful gmin step
Trying gmin =   1.4724E-09 Warning: Further gmin increment
Trying gmin =   1.4725E-09 Note: One successful gmin step
Trying gmin =   1.4725E-09 Note: One successful gmin step
Trying gmin =   1.4724E-09 Note: One successful gmin step
Trying gmin =   1.4724E-09 Note: One successful gmin step
Trying gmin =   1.4723E-09 Note: One successful gmin step
Trying gmin =   1.4722E-09 Note: One successful gmin step
Trying gmin =   1.4720E-09 Note: One successful gmin step
Trying gmin =   1.4718E-09 Note: One successful gmin step
Trying gmin =   1.4714E-09 Note: One successful gmin step
Trying gmin =   1.4708E-09 Note: One successful gmin step
Trying gmin =   1.4700E-09 Note: One successful gmin step
Trying gmin =   1.4687E-09 Note: One successful gmin step
Trying gmin =   1.4668E-09 Note: One successful gmin step
Trying gmin =   1.4639E-09 Note: One successful gmin step
Trying gmin =   1.4597E-09 Note: One successful gmin step
Trying gmin =   1.4533E-09 Note: One successful gmin step
Trying gmin =   1.4437E-09 Note: One successful gmin step
Trying gmin =   1.4296E-09 Note: One successful gmin step
Trying gmin =   1.4086E-09 Note: One successful gmin step
Trying gmin =   1.3776E-09 Note: One successful gmin step
Trying gmin =   1.3325E-09 Note: One successful gmin step
Trying gmin =   1.2676E-09 Note: One successful gmin step
Trying gmin =   1.1760E-09 Note: One successful gmin step
Trying gmin =   1.0510E-09 Note: One successful gmin step
Trying gmin =   8.8792E-10 Note: One successful gmin step
Trying gmin =   6.8949E-10 Note: One successful gmin step
Trying gmin =   4.7180E-10 Note: One successful gmin step
Trying gmin =   2.6706E-10 Note: One successful gmin step
Trying gmin =   1.1373E-10 Note: One successful gmin step
Trying gmin =   3.1608E-11 Note: One successful gmin step
Trying gmin =   4.6309E-12 Note: One successful gmin step
Trying gmin =   1.0000E-12 Note: One successful gmin step
Note: True gmin stepping completed
 Reference value :  1.40000e+00Note: Starting true gmin stepping
Trying gmin =   1.0000E-03 Note: One successful gmin step
Trying gmin =   1.0000E-04 Note: One successful gmin step
Trying gmin =   1.0000E-05 Note: One successful gmin step
Trying gmin =   1.0000E-06 Note: One successful gmin step
Trying gmin =   1.0000E-07 Note: One successful gmin step
Trying gmin =   1.0000E-08 Note: One successful gmin step
Trying gmin =   1.0000E-09 Warning: Further gmin increment
Trying gmin =   5.6234E-09 Note: One successful gmin step
Trying gmin =   2.3714E-09 Note: One successful gmin step
Trying gmin =   6.4938E-10 Warning: Further gmin increment
Trying gmin =   1.7154E-09 Note: One successful gmin step
Trying gmin =   1.0554E-09 Warning: Further gmin increment
Trying gmin =   1.5193E-09 Note: One successful gmin step
Trying gmin =   1.2663E-09 Note: One successful gmin step
Trying gmin =   9.6358E-10 Warning: Further gmin increment
Trying gmin =   1.1827E-09 Note: One successful gmin step
Trying gmin =   1.0675E-09 Warning: Further gmin increment
Trying gmin =   1.1528E-09 Note: One successful gmin step
Trying gmin =   1.1093E-09 Note: One successful gmin step
Trying gmin =   1.0472E-09 Warning: Further gmin increment
Trying gmin =   1.0935E-09 Note: One successful gmin step
Trying gmin =   1.0701E-09 Warning: Further gmin increment
Trying gmin =   1.0876E-09 Note: One successful gmin step
Trying gmin =   1.0788E-09 Note: One successful gmin step
Trying gmin =   1.0658E-09 Warning: Further gmin increment
Trying gmin =   1.0755E-09 Note: One successful gmin step
Trying gmin =   1.0706E-09 Warning: Further gmin increment
Trying gmin =   1.0743E-09 Warning: Further gmin increment
Trying gmin =   1.0752E-09 Note: One successful gmin step
Trying gmin =   1.0748E-09 Note: One successful gmin step
Trying gmin =   1.0741E-09 Warning: Further gmin increment
Trying gmin =   1.0746E-09 Note: One successful gmin step
Trying gmin =   1.0743E-09 Warning: Further gmin increment
Trying gmin =   1.0745E-09 Note: One successful gmin step
Trying gmin =   1.0744E-09 Warning: Further gmin increment
Trying gmin =   1.0745E-09 Note: One successful gmin step
Trying gmin =   1.0745E-09 Warning: Last gmin step failed
Warning: True gmin stepping failed
Note: Starting dynamic gmin stepping
Trying gmin =   1.0000E-03 Note: One successful gmin step
Trying gmin =   1.0000E-04 Note: One successful gmin step
Trying gmin =   1.0000E-05 Note: One successful gmin step
Trying gmin =   1.0000E-06 Warning: Further gmin increment
Trying gmin =   5.6234E-06 Note: One successful gmin step
Trying gmin =   2.3714E-06 Note: One successful gmin step
Trying gmin =   6.4938E-07 Note: One successful gmin step
Trying gmin =   9.3057E-08 Note: One successful gmin step
Trying gmin =   9.3057E-09 Warning: Further gmin increment
Trying gmin =   5.2330E-08 Note: One successful gmin step
Trying gmin =   2.2067E-08 Note: One successful gmin step
Trying gmin =   6.0430E-09 Note: One successful gmin step
Trying gmin =   8.6596E-10 Warning: Further gmin increment
Trying gmin =   3.7180E-09 Note: One successful gmin step
Trying gmin =   1.7943E-09 Note: One successful gmin step
Trying gmin =   6.0158E-10 Note: One successful gmin step
Trying gmin =   1.1678E-10 Note: One successful gmin step
Trying gmin =   1.1678E-11 Note: One successful gmin step
Trying gmin =   1.1678E-12 Note: One successful gmin step
Trying gmin =   1.0000E-12 Note: One successful gmin step
Note: Dynamic gmin stepping completed
 Reference value :  1.38000e+00pm                  =  8.468617e+01
Doing analysis at TEMP = 0.000000 and TNOM = 27.000000


No. of Data Rows : 91
psrr100             =  -2.733642e+01
psrr100k            =  -4.188184e+00
Doing analysis at TEMP = 0.000000 and TNOM = 27.000000


No. of Data Rows : 86
temp_coeff = 1.223114e+02
Doing analysis at TEMP = 0.000000 and TNOM = 27.000000


No. of Data Rows : 141
vldo_sup_2          =  1.795182e+00
vldo_sup_2_8        =  1.794162e+00
line_reg = 1.275000e-03
Note: No ".plot", ".print", or ".fourier" lines; no simulations run
vin                 =  1.764119e+00
dropout = 1.190000e-04
