 Reference value :  0.00000e+00
No compatibility mode selected!


Circuit: * ldo netlist 

Doing analysis at TEMP = 27.000000 and TNOM = 27.000000


No. of Data Rows : 1
bg_out = 1.192589e+00
inn = 1.222411e+00
inp = 1.222371e+00
l1#branch = -8.67362e-19
ldo_out = 1.793165e+00
m.xm1.msky130_fd_pr__nfet_g5v0d10v5#body = 1.470616e-11
m.xm1.msky130_fd_pr__nfet_g5v0d10v5#dbody = 2.955006e-11
m.xm1.msky130_fd_pr__nfet_g5v0d10v5#sbody = 1.456842e-11
m.xm2.msky130_fd_pr__pfet_g5v0d10v5#body = 2.100000e+00
m.xm2.msky130_fd_pr__pfet_g5v0d10v5#dbody = 2.100000e+00
m.xm2.msky130_fd_pr__pfet_g5v0d10v5#sbody = 2.100000e+00
m.xm3.msky130_fd_pr__pfet_g5v0d10v5#body = 2.100000e+00
m.xm3.msky130_fd_pr__pfet_g5v0d10v5#dbody = 2.100000e+00
m.xm3.msky130_fd_pr__pfet_g5v0d10v5#sbody = 2.100000e+00
m.xm4.msky130_fd_pr__pfet_g5v0d10v5#body = 2.100000e+00
m.xm4.msky130_fd_pr__pfet_g5v0d10v5#dbody = 2.100000e+00
m.xm4.msky130_fd_pr__pfet_g5v0d10v5#sbody = 2.100000e+00
m.xm5.msky130_fd_pr__pfet_g5v0d10v5#body = 2.100000e+00
m.xm5.msky130_fd_pr__pfet_g5v0d10v5#dbody = 2.100000e+00
m.xm5.msky130_fd_pr__pfet_g5v0d10v5#sbody = 2.100000e+00
m.xm6.msky130_fd_pr__nfet_g5v0d10v5#body = 1.171379e-11
m.xm6.msky130_fd_pr__nfet_g5v0d10v5#dbody = 2.928447e-11
m.xm6.msky130_fd_pr__nfet_g5v0d10v5#sbody = 5.856900e-12
m.xm7.msky130_fd_pr__pfet_g5v0d10v5#body = 2.100000e+00
m.xm7.msky130_fd_pr__pfet_g5v0d10v5#dbody = 2.100000e+00
m.xm7.msky130_fd_pr__pfet_g5v0d10v5#sbody = 2.100000e+00
m.xm8.msky130_fd_pr__pfet_g5v0d10v5#body = 2.100000e+00
m.xm8.msky130_fd_pr__pfet_g5v0d10v5#dbody = 2.100000e+00
m.xm8.msky130_fd_pr__pfet_g5v0d10v5#sbody = 2.100000e+00
m.xm9.msky130_fd_pr__nfet_g5v0d10v5#body = 1.535584e-11
m.xm9.msky130_fd_pr__nfet_g5v0d10v5#dbody = 3.206673e-11
m.xm9.msky130_fd_pr__nfet_g5v0d10v5#sbody = 1.400077e-11
m.xm10.msky130_fd_pr__nfet_g5v0d10v5#body = 1.530789e-11
m.xm10.msky130_fd_pr__nfet_g5v0d10v5#dbody = 3.194687e-11
m.xm10.msky130_fd_pr__nfet_g5v0d10v5#sbody = 1.397680e-11
m.xm11.msky130_fd_pr__pfet_g5v0d10v5#body = 2.100000e+00
m.xm11.msky130_fd_pr__pfet_g5v0d10v5#dbody = 2.100000e+00
m.xm11.msky130_fd_pr__pfet_g5v0d10v5#sbody = 2.100000e+00
m.xm12.msky130_fd_pr__pfet_g5v0d10v5#body = 2.100000e+00
m.xm12.msky130_fd_pr__pfet_g5v0d10v5#dbody = 2.100000e+00
m.xm12.msky130_fd_pr__pfet_g5v0d10v5#sbody = 2.100000e+00
m.xm13.msky130_fd_pr__nfet_g5v0d10v5#body = 3.160070e-12
m.xm13.msky130_fd_pr__nfet_g5v0d10v5#dbody = 7.900163e-12
m.xm13.msky130_fd_pr__nfet_g5v0d10v5#sbody = 1.580045e-12
m.xm14.msky130_fd_pr__pfet_g5v0d10v5#body = 2.100000e+00
m.xm14.msky130_fd_pr__pfet_g5v0d10v5#dbody = 2.100000e+00
m.xm14.msky130_fd_pr__pfet_g5v0d10v5#sbody = 2.100000e+00
m.xm15.msky130_fd_pr__nfet_g5v0d10v5#body = 1.392567e-17
m.xm15.msky130_fd_pr__nfet_g5v0d10v5#dbody = 3.481325e-17
m.xm15.msky130_fd_pr__nfet_g5v0d10v5#sbody = 6.963759e-18
m.xm16.msky130_fd_pr__nfet_g5v0d10v5#body = 4.153883e-11
m.xm16.msky130_fd_pr__nfet_g5v0d10v5#dbody = 7.327811e-11
m.xm16.msky130_fd_pr__nfet_g5v0d10v5#sbody = 5.133839e-11
m.xm17.msky130_fd_pr__pfet_g5v0d10v5#body = 2.100000e+00
m.xm17.msky130_fd_pr__pfet_g5v0d10v5#dbody = 2.100000e+00
m.xm17.msky130_fd_pr__pfet_g5v0d10v5#sbody = 2.100000e+00
m.xm18.msky130_fd_pr__nfet_g5v0d10v5#body = 6.306886e-12
m.xm18.msky130_fd_pr__nfet_g5v0d10v5#dbody = 1.576720e-11
m.xm18.msky130_fd_pr__nfet_g5v0d10v5#sbody = 3.153454e-12
m.xm19.msky130_fd_pr__nfet_g5v0d10v5#body = 1.475744e-11
m.xm19.msky130_fd_pr__nfet_g5v0d10v5#dbody = 2.967825e-11
m.xm19.msky130_fd_pr__nfet_g5v0d10v5#sbody = 1.459406e-11
m.xm20.msky130_fd_pr__nfet_g5v0d10v5#body = 1.198349e-11
m.xm20.msky130_fd_pr__nfet_g5v0d10v5#dbody = 2.995870e-11
m.xm20.msky130_fd_pr__nfet_g5v0d10v5#sbody = 5.991754e-12
m.xm22.msky130_fd_pr__nfet_g5v0d10v5#body = 3.610383e-12
m.xm22.msky130_fd_pr__nfet_g5v0d10v5#dbody = 9.025952e-12
m.xm22.msky130_fd_pr__nfet_g5v0d10v5#sbody = 1.805196e-12
m.xm24.msky130_fd_pr__pfet_g5v0d10v5#body = 2.100000e+00
m.xm24.msky130_fd_pr__pfet_g5v0d10v5#dbody = 2.100000e+00
m.xm24.msky130_fd_pr__pfet_g5v0d10v5#sbody = 2.100000e+00
m.xm26.msky130_fd_pr__pfet_g5v0d10v5#body = 2.100000e+00
m.xm26.msky130_fd_pr__pfet_g5v0d10v5#dbody = 2.100000e+00
m.xm26.msky130_fd_pr__pfet_g5v0d10v5#sbody = 2.100000e+00
mir = 8.875316e-01
net1 = 7.251225e-01
net2 = 1.071465e-06
net3 = 7.846695e-01
net4 = 2.882659e-01
net5 = 8.916336e-01
net6 = 9.365384e-01
net7 = 7.846276e-01
net8 = 9.714780e-01
net9 = 9.753136e-01
net10 = 2.526750e-01
net11 = 5.044203e-01
net12 = 5.044203e-01
net13 = 0.000000e+00
out = 5.044203e-01
pos = 1.192633e+00
q.xq2.qsky130_fd_pr__pnp_05v5_w0p68l0p68#collcx = 2.093234e-03
q.xq3.qsky130_fd_pr__pnp_05v5_w0p68l0p68#collcx = 2.636007e-04
q.xq4.qsky130_fd_pr__pnp_05v5_w0p68l0p68#collcx = 2.636007e-04
q.xq8.qsky130_fd_pr__pnp_05v5_w0p68l0p68#collcx = 2.636007e-04
q.xq10.qsky130_fd_pr__pnp_05v5_w0p68l0p68#collcx = 2.636007e-04
q.xq12.qsky130_fd_pr__pnp_05v5_w0p68l0p68#collcx = 2.636007e-04
q.xq14.qsky130_fd_pr__pnp_05v5_w0p68l0p68#collcx = 2.636007e-04
q.xq16.qsky130_fd_pr__pnp_05v5_w0p68l0p68#collcx = 2.636007e-04
q.xq18.qsky130_fd_pr__pnp_05v5_w0p68l0p68#collcx = 2.636007e-04
vb = 9.585481e-01
vdd = 2.100000e+00
vs#branch = -9.97399e-02
vt#branch = 0.000000e+00
xc1.a = 0.000000e+00
xc1.b1 = 0.000000e+00
xc3.a = 5.044203e-01
xc3.b1 = 5.044203e-01
xr1.xsky130_fd_pr__res_xhigh_po_0p69.ra = 7.921742e-01
xr2.xsky130_fd_pr__res_xhigh_po_0p69.ra = 7.922160e-01
xr3.xsky130_fd_pr__res_xhigh_po_0p69.ra = 5.108695e-03
xr4.xsky130_fd_pr__res_xhigh_po_0p69.ra = 7.276591e-01
xr5.xsky130_fd_pr__res_xhigh_po_0p69.ra = 5.108404e-03
xr6.xsky130_fd_pr__res_xhigh_po_0p69.ra = 8.022794e-03
xr7.xsky130_fd_pr__res_xhigh_po_0p69.ra = 5.044203e-01
xr8.xsky130_fd_pr__res_xhigh_po_0p69.ra = 1.205980e+00
xr9.xsky130_fd_pr__res_xhigh_po_0p69.ra = 1.399752e-02
Doing analysis at TEMP = 27.000000 and TNOM = 27.000000


No. of Data Rows : 91
Note: Starting true gmin stepping
Trying gmin =   1.0000E-03 Note: One successful gmin step
Trying gmin =   1.0000E-04 Note: One successful gmin step
Trying gmin =   1.0000E-05 Note: One successful gmin step
Trying gmin =   1.0000E-06 Note: One successful gmin step
Trying gmin =   1.0000E-07 Note: One successful gmin step
Trying gmin =   1.0000E-08 Warning: Further gmin increment
Trying gmin =   5.6234E-08 Note: One successful gmin step
Trying gmin =   2.3714E-08 Warning: Further gmin increment
Trying gmin =   4.5316E-08 Warning: Further gmin increment
Trying gmin =   5.3280E-08 Note: One successful gmin step
Trying gmin =   4.9137E-08 Warning: Further gmin increment
Trying gmin =   5.2212E-08 Warning: Further gmin increment
Trying gmin =   5.3011E-08 Note: One successful gmin step
Trying gmin =   5.2610E-08 Note: One successful gmin step
Trying gmin =   5.2015E-08 Warning: Further gmin increment
Trying gmin =   5.2461E-08 Warning: Further gmin increment
Trying gmin =   5.2573E-08 Warning: Further gmin increment
Trying gmin =   5.2601E-08 Note: One successful gmin step
Trying gmin =   5.2587E-08 Note: One successful gmin step
Trying gmin =   5.2566E-08 Warning: Further gmin increment
Trying gmin =   5.2581E-08 Note: One successful gmin step
Trying gmin =   5.2574E-08 Warning: Further gmin increment
Trying gmin =   5.2580E-08 Warning: Last gmin step failed
Warning: True gmin stepping failed
Note: Starting dynamic gmin stepping
Trying gmin =   1.0000E-03 Note: One successful gmin step
Trying gmin =   1.0000E-04 Note: One successful gmin step
Trying gmin =   1.0000E-05 Note: One successful gmin step
Trying gmin =   1.0000E-06 Warning: Further gmin increment
Trying gmin =   5.6234E-06 Note: One successful gmin step
Trying gmin =   2.3714E-06 Note: One successful gmin step
Trying gmin =   6.4938E-07 Note: One successful gmin step
Trying gmin =   9.3057E-08 Warning: Further gmin increment
Trying gmin =   3.9954E-07 Note: One successful gmin step
Trying gmin =   1.9282E-07 Warning: Further gmin increment
Trying gmin =   3.3301E-07 Note: One successful gmin step
Trying gmin =   2.5340E-07 Note: One successful gmin step
Trying gmin =   1.6820E-07 Warning: Further gmin increment
Trying gmin =   2.2873E-07 Warning: Further gmin increment
Trying gmin =   2.4699E-07 Note: One successful gmin step
Trying gmin =   2.3768E-07 Warning: Further gmin increment
Trying gmin =   2.4463E-07 Note: One successful gmin step
Trying gmin =   2.4113E-07 Warning: Further gmin increment
Trying gmin =   2.4375E-07 Note: One successful gmin step
Trying gmin =   2.4244E-07 Warning: Further gmin increment
Trying gmin =   2.4342E-07 Note: One successful gmin step
Trying gmin =   2.4293E-07 Warning: Further gmin increment
Trying gmin =   2.4330E-07 Note: One successful gmin step
Trying gmin =   2.4312E-07 Note: One successful gmin step
Trying gmin =   2.4284E-07 Warning: Further gmin increment
Trying gmin =   2.4305E-07 Note: One successful gmin step
Trying gmin =   2.4294E-07 Warning: Further gmin increment
Trying gmin =   2.4302E-07 Note: One successful gmin step
Trying gmin =   2.4298E-07 Note: One successful gmin step
Trying gmin =   2.4292E-07 Warning: Further gmin increment
Trying gmin =   2.4297E-07 Warning: Further gmin increment
Trying gmin =   2.4298E-07 Note: One successful gmin step
Trying gmin =   2.4297E-07 Note: One successful gmin step
Trying gmin =   2.4296E-07 Warning: Last gmin step failed
Warning: Dynamic gmin stepping failed
Note: Starting source stepping
Supplies reduced to   0.0000% Note: One successful source step
Supplies reduced to   0.1000% Note: One successful source step
Supplies reduced to   0.2000% Note: One successful source step
Supplies reduced to   0.3500% Note: One successful source step
Supplies reduced to   0.5750% Note: One successful source step
Supplies reduced to   0.9125% Note: One successful source step
Supplies reduced to   1.4188% Note: One successful source step
Supplies reduced to   2.1781% Note: One successful source step
Supplies reduced to   3.3172% Note: One successful source step
Supplies reduced to   5.0258% Note: One successful source step
Supplies reduced to   7.5887% Note: One successful source step
Supplies reduced to  11.4330% Note: One successful source step
Supplies reduced to  17.1995% Note: One successful source step
Supplies reduced to  25.8493% Supplies reduced to  17.1995% Note: One successful source step
Supplies reduced to  18.1995% Note: One successful source step
Supplies reduced to  19.6995% Note: One successful source step
Supplies reduced to  21.9495% Note: One successful source step
Supplies reduced to  25.3245% Note: One successful source step
Supplies reduced to  28.6995% Note: One successful source step
Supplies reduced to  32.0745% Note: One successful source step
Supplies reduced to  37.1370% Note: One successful source step
Supplies reduced to  44.7308% Supplies reduced to  37.1370% Note: One successful source step
Supplies reduced to  38.1370% Note: One successful source step
Supplies reduced to  39.6370% Note: One successful source step
Supplies reduced to  41.8870% Note: One successful source step
Supplies reduced to  45.2620% Supplies reduced to  41.8870% Note: One successful source step
Supplies reduced to  42.3933% Note: One successful source step
Supplies reduced to  43.1526% Note: One successful source step
Supplies reduced to  43.9120% Note: One successful source step
Supplies reduced to  45.0511% Note: One successful source step
Supplies reduced to  46.7597% Note: One successful source step
Supplies reduced to  49.3226% Note: One successful source step
Supplies reduced to  53.1669% Note: One successful source step
Supplies reduced to  58.9334% Note: One successful source step
Supplies reduced to  67.5832% Note: One successful source step
Supplies reduced to  80.5578% Supplies reduced to  67.5832% Note: One successful source step
Supplies reduced to  68.5832% Note: One successful source step
Supplies reduced to  70.0832% Note: One successful source step
Supplies reduced to  72.3332% Supplies reduced to  70.0832% Note: One successful source step
Supplies reduced to  70.4207% Note: One successful source step
Supplies reduced to  70.9269% Note: One successful source step
Supplies reduced to  71.6863% Note: One successful source step
Supplies reduced to  72.8253% Supplies reduced to  71.6863% Note: One successful source step
Supplies reduced to  71.8571% Note: One successful source step
Supplies reduced to  72.1134% Note: One successful source step
Supplies reduced to  72.4979% Supplies reduced to  72.1134% Note: One successful source step
Supplies reduced to  72.1711% Supplies reduced to  72.1134% Note: One successful source step
Supplies reduced to  72.1221% Note: One successful source step
Supplies reduced to  72.1351% Note: One successful source step
Supplies reduced to  72.1545% Supplies reduced to  72.1351% Note: One successful source step
Supplies reduced to  72.1380% Note: One successful source step
Supplies reduced to  72.1424% Note: One successful source step
Supplies reduced to  72.1489% Supplies reduced to  72.1424% Note: One successful source step
Supplies reduced to  72.1433% Note: One successful source step
Supplies reduced to  72.1448% Note: One successful source step
Supplies reduced to  72.1470% Note: One successful source step
Supplies reduced to  72.1504% Supplies reduced to  72.1470% Note: One successful source step
Supplies reduced to  72.1475% Supplies reduced to  72.1470% Note: One successful source step
Supplies reduced to  72.1471% Note: One successful source step
Supplies reduced to  72.1472% Supplies reduced to  72.1471% Note: One successful source step
Supplies reduced to  72.1471% Note: One successful source step
Supplies reduced to  72.1471% Note: One successful source step
Supplies reduced to  72.1472% Warning: source stepping failed
doAnalyses: Too many iterations without convergence

dc simulation(s) aborted
Error(parse.c--checkvalid): vldo_sup_2_8: zero length vector.
Error: RHS "abs((vldo_sup_2_8-vldo_sup_2)/0.8)" invalid
Error(parse.c--checkvalid): line_reg: zero length vector.
Error(parse.c--checkvalid): vin: zero length vector.
Error: RHS "vin-1.764" invalid
Error(parse.c--checkvalid): dropout: zero length vector.
Error: no such vector dropout
Note: No ".plot", ".print", or ".fourier" lines; no simulations run
pm                  =  1.119504e+02
Doing analysis at TEMP = 27.000000 and TNOM = 27.000000


No. of Data Rows : 91
psrr100             =  -6.306534e+01
psrr100k            =  -1.887922e+01
Doing analysis at TEMP = 27.000000 and TNOM = 27.000000


No. of Data Rows : 86
temp_coeff = 8.754343e+01
Doing analysis at TEMP = 27.000000 and TNOM = 27.000000


Error: measure  vldo_sup_2  (AT) : out of interval
 meas dc vldo_sup_2 find ldo_out at=2 failed!


Error: measure  vldo_sup_2_8  (AT) : out of interval
 meas dc vldo_sup_2_8 find ldo_out at=2.8 failed!


Error: measure  vin  (WHEN) : out of interval
 meas dc vin when v(ldo_out)=1.764 failed!

