 Reference value :  0.00000e+00
No compatibility mode selected!


Circuit: * ldo netlist 

Doing analysis at TEMP = 85.000000 and TNOM = 27.000000


No. of Data Rows : 1
bg_out = 1.096036e+00
inn = 1.058282e+00
inp = 1.058190e+00
l1#branch = 0.000000e+00
ldo_out = 1.801263e+00
m.xm1.msky130_fd_pr__nfet_g5v0d10v5#body = 2.518734e-11
m.xm1.msky130_fd_pr__nfet_g5v0d10v5#dbody = 4.701501e-11
m.xm1.msky130_fd_pr__nfet_g5v0d10v5#sbody = 2.854701e-11
m.xm2.msky130_fd_pr__pfet_g5v0d10v5#body = 2.100000e+00
m.xm2.msky130_fd_pr__pfet_g5v0d10v5#dbody = 2.100000e+00
m.xm2.msky130_fd_pr__pfet_g5v0d10v5#sbody = 2.100000e+00
m.xm3.msky130_fd_pr__pfet_g5v0d10v5#body = 2.100000e+00
m.xm3.msky130_fd_pr__pfet_g5v0d10v5#dbody = 2.100000e+00
m.xm3.msky130_fd_pr__pfet_g5v0d10v5#sbody = 2.100000e+00
m.xm4.msky130_fd_pr__pfet_g5v0d10v5#body = 2.100000e+00
m.xm4.msky130_fd_pr__pfet_g5v0d10v5#dbody = 2.100000e+00
m.xm4.msky130_fd_pr__pfet_g5v0d10v5#sbody = 2.100000e+00
m.xm5.msky130_fd_pr__pfet_g5v0d10v5#body = 2.100000e+00
m.xm5.msky130_fd_pr__pfet_g5v0d10v5#dbody = 2.100000e+00
m.xm5.msky130_fd_pr__pfet_g5v0d10v5#sbody = 2.100000e+00
m.xm6.msky130_fd_pr__nfet_g5v0d10v5#body = 1.977124e-11
m.xm6.msky130_fd_pr__nfet_g5v0d10v5#dbody = 4.942799e-11
m.xm6.msky130_fd_pr__nfet_g5v0d10v5#sbody = 9.885732e-12
m.xm7.msky130_fd_pr__pfet_g5v0d10v5#body = 2.100000e+00
m.xm7.msky130_fd_pr__pfet_g5v0d10v5#dbody = 2.100000e+00
m.xm7.msky130_fd_pr__pfet_g5v0d10v5#sbody = 2.100000e+00
m.xm8.msky130_fd_pr__pfet_g5v0d10v5#body = 2.100000e+00
m.xm8.msky130_fd_pr__pfet_g5v0d10v5#dbody = 2.100000e+00
m.xm8.msky130_fd_pr__pfet_g5v0d10v5#sbody = 2.100000e+00
m.xm9.msky130_fd_pr__nfet_g5v0d10v5#body = 2.329626e-11
m.xm9.msky130_fd_pr__nfet_g5v0d10v5#dbody = 4.530058e-11
m.xm9.msky130_fd_pr__nfet_g5v0d10v5#sbody = 2.458818e-11
m.xm10.msky130_fd_pr__nfet_g5v0d10v5#body = 2.322075e-11
m.xm10.msky130_fd_pr__nfet_g5v0d10v5#dbody = 4.511183e-11
m.xm10.msky130_fd_pr__nfet_g5v0d10v5#sbody = 2.455043e-11
m.xm11.msky130_fd_pr__pfet_g5v0d10v5#body = 2.100000e+00
m.xm11.msky130_fd_pr__pfet_g5v0d10v5#dbody = 2.100000e+00
m.xm11.msky130_fd_pr__pfet_g5v0d10v5#sbody = 2.100000e+00
m.xm12.msky130_fd_pr__pfet_g5v0d10v5#body = 2.100000e+00
m.xm12.msky130_fd_pr__pfet_g5v0d10v5#dbody = 2.100000e+00
m.xm12.msky130_fd_pr__pfet_g5v0d10v5#sbody = 2.100000e+00
m.xm13.msky130_fd_pr__nfet_g5v0d10v5#body = 4.824034e-12
m.xm13.msky130_fd_pr__nfet_g5v0d10v5#dbody = 1.206002e-11
m.xm13.msky130_fd_pr__nfet_g5v0d10v5#sbody = 2.412081e-12
m.xm14.msky130_fd_pr__pfet_g5v0d10v5#body = 2.100000e+00
m.xm14.msky130_fd_pr__pfet_g5v0d10v5#dbody = 2.100000e+00
m.xm14.msky130_fd_pr__pfet_g5v0d10v5#sbody = 2.100000e+00
m.xm15.msky130_fd_pr__nfet_g5v0d10v5#body = 8.186208e-15
m.xm15.msky130_fd_pr__nfet_g5v0d10v5#dbody = 2.046514e-14
m.xm15.msky130_fd_pr__nfet_g5v0d10v5#sbody = 4.093489e-15
m.xm16.msky130_fd_pr__nfet_g5v0d10v5#body = 5.003298e-11
m.xm16.msky130_fd_pr__nfet_g5v0d10v5#dbody = 8.807096e-11
m.xm16.msky130_fd_pr__nfet_g5v0d10v5#sbody = 6.202800e-11
m.xm17.msky130_fd_pr__pfet_g5v0d10v5#body = 2.100000e+00
m.xm17.msky130_fd_pr__pfet_g5v0d10v5#dbody = 2.100000e+00
m.xm17.msky130_fd_pr__pfet_g5v0d10v5#sbody = 2.100000e+00
m.xm18.msky130_fd_pr__nfet_g5v0d10v5#body = 8.111017e-12
m.xm18.msky130_fd_pr__nfet_g5v0d10v5#dbody = 2.027747e-11
m.xm18.msky130_fd_pr__nfet_g5v0d10v5#sbody = 4.055578e-12
m.xm19.msky130_fd_pr__nfet_g5v0d10v5#body = 2.530269e-11
m.xm19.msky130_fd_pr__nfet_g5v0d10v5#dbody = 4.730338e-11
m.xm19.msky130_fd_pr__nfet_g5v0d10v5#sbody = 2.860469e-11
m.xm20.msky130_fd_pr__nfet_g5v0d10v5#body = 1.344719e-11
m.xm20.msky130_fd_pr__nfet_g5v0d10v5#dbody = 3.361789e-11
m.xm20.msky130_fd_pr__nfet_g5v0d10v5#sbody = 6.723668e-12
m.xm22.msky130_fd_pr__nfet_g5v0d10v5#body = 1.126738e-11
m.xm22.msky130_fd_pr__nfet_g5v0d10v5#dbody = 2.816835e-11
m.xm22.msky130_fd_pr__nfet_g5v0d10v5#sbody = 5.633794e-12
m.xm24.msky130_fd_pr__pfet_g5v0d10v5#body = 2.100000e+00
m.xm24.msky130_fd_pr__pfet_g5v0d10v5#dbody = 2.100000e+00
m.xm24.msky130_fd_pr__pfet_g5v0d10v5#sbody = 2.100000e+00
m.xm26.msky130_fd_pr__pfet_g5v0d10v5#body = 2.100000e+00
m.xm26.msky130_fd_pr__pfet_g5v0d10v5#dbody = 2.100000e+00
m.xm26.msky130_fd_pr__pfet_g5v0d10v5#sbody = 2.100000e+00
mir = 9.546751e-01
net1 = 6.283472e-01
net2 = 1.580264e-05
net3 = 7.016163e-01
net4 = 2.165808e-01
net5 = 9.639028e-01
net6 = 8.958727e-01
net7 = 7.015234e-01
net8 = 1.049701e+00
net9 = 1.055742e+00
net10 = 2.275547e-01
net11 = 4.903442e-01
net12 = 4.903442e-01
net13 = 0.000000e+00
out = 4.903442e-01
pos = 1.096111e+00
q.xq2.qsky130_fd_pr__pnp_05v5_w0p68l0p68#collcx = 2.836217e-03
q.xq3.qsky130_fd_pr__pnp_05v5_w0p68l0p68#collcx = 3.578469e-04
q.xq4.qsky130_fd_pr__pnp_05v5_w0p68l0p68#collcx = 3.578469e-04
q.xq8.qsky130_fd_pr__pnp_05v5_w0p68l0p68#collcx = 3.578469e-04
q.xq10.qsky130_fd_pr__pnp_05v5_w0p68l0p68#collcx = 3.578469e-04
q.xq12.qsky130_fd_pr__pnp_05v5_w0p68l0p68#collcx = 3.578469e-04
q.xq14.qsky130_fd_pr__pnp_05v5_w0p68l0p68#collcx = 3.578469e-04
q.xq16.qsky130_fd_pr__pnp_05v5_w0p68l0p68#collcx = 3.578469e-04
q.xq18.qsky130_fd_pr__pnp_05v5_w0p68l0p68#collcx = 3.578469e-04
vb = 9.172376e-01
vdd = 2.100000e+00
vs#branch = -1.00201e-01
vt#branch = 0.000000e+00
xc1.a = 0.000000e+00
xc1.b1 = 0.000000e+00
xc3.a = 4.903442e-01
xc3.b1 = 4.903442e-01
xr1.xsky130_fd_pr__res_xhigh_po_0p69.ra = 7.099434e-01
xr2.xsky130_fd_pr__res_xhigh_po_0p69.ra = 7.100363e-01
xr3.xsky130_fd_pr__res_xhigh_po_0p69.ra = 5.152345e-03
xr4.xsky130_fd_pr__res_xhigh_po_0p69.ra = 6.317121e-01
xr5.xsky130_fd_pr__res_xhigh_po_0p69.ra = 5.151624e-03
xr6.xsky130_fd_pr__res_xhigh_po_0p69.ra = 8.903102e-03
xr7.xsky130_fd_pr__res_xhigh_po_0p69.ra = 4.903442e-01
xr8.xsky130_fd_pr__res_xhigh_po_0p69.ra = 1.109638e+00
xr9.xsky130_fd_pr__res_xhigh_po_0p69.ra = 1.396451e-02
Doing analysis at TEMP = 85.000000 and TNOM = 27.000000


No. of Data Rows : 91
Error: no such vector PM
 Reference value :  1.14000e+00Note: Starting true gmin stepping
Trying gmin =   1.0000E-03 Note: One successful gmin step
Trying gmin =   1.0000E-04 Note: One successful gmin step
Trying gmin =   1.0000E-05 Note: One successful gmin step
Trying gmin =   1.0000E-06 Note: One successful gmin step
Trying gmin =   1.0000E-07 Note: One successful gmin step
Trying gmin =   1.0000E-08 Note: One successful gmin step
Trying gmin =   1.0000E-09 Warning: Further gmin increment
Trying gmin =   5.6234E-09 Note: One successful gmin step
Trying gmin =   3.1623E-09 Note: One successful gmin step
Trying gmin =   2.3714E-09 Note: One successful gmin step
Trying gmin =   1.5399E-09 Note: One successful gmin step
Trying gmin =   8.0584E-10 Note: One successful gmin step
Trying gmin =   3.0505E-10 Note: One successful gmin step
Trying gmin =   7.1050E-11 Note: One successful gmin step
Trying gmin =   7.9863E-12 Note: One successful gmin step
Trying gmin =   1.0000E-12 Note: One successful gmin step
Note: True gmin stepping completed

Error: measure  pm  (AT) : out of interval
 meas ac pm find p when vdb(ldo_out)=0 failed!

Doing analysis at TEMP = 85.000000 and TNOM = 27.000000


No. of Data Rows : 91
psrr100             =  -4.648885e+01
psrr100k            =  -1.530410e+01
Doing analysis at TEMP = 85.000000 and TNOM = 27.000000


No. of Data Rows : 86
temp_coeff = 3.771643e+01
Doing analysis at TEMP = 85.000000 and TNOM = 27.000000


No. of Data Rows : 141
vldo_sup_2          =  1.800077e+00
vldo_sup_2_8        =  1.802849e+00
line_reg = 3.465000e-03
Note: No ".plot", ".print", or ".fourier" lines; no simulations run
vin                 =  1.948149e+00
dropout = 1.841490e-01
