Note: Starting true gmin stepping
Trying gmin =   1.0000E-03 Note: One successful gmin step
Trying gmin =   1.0000E-04 Note: One successful gmin step
Trying gmin =   1.0000E-05 Note: One successful gmin step
Trying gmin =   1.0000E-06 Note: One successful gmin step
Trying gmin =   1.0000E-07 Note: One successful gmin step
Trying gmin =   1.0000E-08 Warning: Further gmin increment
Trying gmin =   5.6234E-08 Warning: Further gmin increment
Trying gmin =   8.6596E-08 Note: One successful gmin step
Trying gmin =   7.4989E-08 Note: One successful gmin step
Trying gmin =   6.0430E-08 Note: One successful gmin step
Trying gmin =   4.3714E-08 Note: One successful gmin step
Trying gmin =   2.6896E-08 Note: One successful gmin step
Trying gmin =   1.2980E-08 Note: One successful gmin step
Trying gmin =   4.3518E-09 Note: One successful gmin step
Trying gmin =   8.4481E-10 Note: One successful gmin step
Trying gmin =   8.4481E-11 Note: One successful gmin step
Trying gmin =   8.4481E-12 Note: One successful gmin step
Trying gmin =   1.0000E-12 Note: One successful gmin step
Note: True gmin stepping completed
 Reference value :  0.00000e+00
No compatibility mode selected!


Circuit: * ldo netlist 

Doing analysis at TEMP = 0.000000 and TNOM = 27.000000


No. of Data Rows : 1
bg_out = 1.193043e+00
inn = 1.261251e+00
inp = 1.261232e+00
l1#branch = 0.000000e+00
ldo_out = 1.794484e+00
m.xm1.msky130_fd_pr__nfet_g5v0d10v5#body = 1.982039e-11
m.xm1.msky130_fd_pr__nfet_g5v0d10v5#dbody = 4.342826e-11
m.xm1.msky130_fd_pr__nfet_g5v0d10v5#sbody = 1.603290e-11
m.xm2.msky130_fd_pr__pfet_g5v0d10v5#body = 2.500000e+00
m.xm2.msky130_fd_pr__pfet_g5v0d10v5#dbody = 2.500000e+00
m.xm2.msky130_fd_pr__pfet_g5v0d10v5#sbody = 2.500000e+00
m.xm3.msky130_fd_pr__pfet_g5v0d10v5#body = 2.500000e+00
m.xm3.msky130_fd_pr__pfet_g5v0d10v5#dbody = 2.500000e+00
m.xm3.msky130_fd_pr__pfet_g5v0d10v5#sbody = 2.500000e+00
m.xm4.msky130_fd_pr__pfet_g5v0d10v5#body = 2.500000e+00
m.xm4.msky130_fd_pr__pfet_g5v0d10v5#dbody = 2.500000e+00
m.xm4.msky130_fd_pr__pfet_g5v0d10v5#sbody = 2.500000e+00
m.xm5.msky130_fd_pr__pfet_g5v0d10v5#body = 2.500000e+00
m.xm5.msky130_fd_pr__pfet_g5v0d10v5#dbody = 2.500000e+00
m.xm5.msky130_fd_pr__pfet_g5v0d10v5#sbody = 2.500000e+00
m.xm6.msky130_fd_pr__nfet_g5v0d10v5#body = 1.264656e-11
m.xm6.msky130_fd_pr__nfet_g5v0d10v5#dbody = 3.161640e-11
m.xm6.msky130_fd_pr__nfet_g5v0d10v5#sbody = 6.323286e-12
m.xm7.msky130_fd_pr__pfet_g5v0d10v5#body = 2.500000e+00
m.xm7.msky130_fd_pr__pfet_g5v0d10v5#dbody = 2.500000e+00
m.xm7.msky130_fd_pr__pfet_g5v0d10v5#sbody = 2.500000e+00
m.xm8.msky130_fd_pr__pfet_g5v0d10v5#body = 2.500000e+00
m.xm8.msky130_fd_pr__pfet_g5v0d10v5#dbody = 2.500000e+00
m.xm8.msky130_fd_pr__pfet_g5v0d10v5#sbody = 2.500000e+00
m.xm9.msky130_fd_pr__nfet_g5v0d10v5#body = 2.013724e-11
m.xm9.msky130_fd_pr__nfet_g5v0d10v5#dbody = 4.577944e-11
m.xm9.msky130_fd_pr__nfet_g5v0d10v5#sbody = 1.463212e-11
m.xm10.msky130_fd_pr__nfet_g5v0d10v5#body = 1.986365e-11
m.xm10.msky130_fd_pr__nfet_g5v0d10v5#dbody = 4.509554e-11
m.xm10.msky130_fd_pr__nfet_g5v0d10v5#sbody = 1.449533e-11
m.xm11.msky130_fd_pr__pfet_g5v0d10v5#body = 2.500000e+00
m.xm11.msky130_fd_pr__pfet_g5v0d10v5#dbody = 2.500000e+00
m.xm11.msky130_fd_pr__pfet_g5v0d10v5#sbody = 2.500000e+00
m.xm12.msky130_fd_pr__pfet_g5v0d10v5#body = 2.500000e+00
m.xm12.msky130_fd_pr__pfet_g5v0d10v5#dbody = 2.500000e+00
m.xm12.msky130_fd_pr__pfet_g5v0d10v5#sbody = 2.500000e+00
m.xm13.msky130_fd_pr__nfet_g5v0d10v5#body = 2.281732e-12
m.xm13.msky130_fd_pr__nfet_g5v0d10v5#dbody = 5.704321e-12
m.xm13.msky130_fd_pr__nfet_g5v0d10v5#sbody = 1.140876e-12
m.xm14.msky130_fd_pr__pfet_g5v0d10v5#body = 2.500000e+00
m.xm14.msky130_fd_pr__pfet_g5v0d10v5#dbody = 2.500000e+00
m.xm14.msky130_fd_pr__pfet_g5v0d10v5#sbody = 2.500000e+00
m.xm15.msky130_fd_pr__nfet_g5v0d10v5#body = 1.529240e-15
m.xm15.msky130_fd_pr__nfet_g5v0d10v5#dbody = 3.823038e-15
m.xm15.msky130_fd_pr__nfet_g5v0d10v5#sbody = 7.646819e-16
m.xm16.msky130_fd_pr__nfet_g5v0d10v5#body = 4.701576e-11
m.xm16.msky130_fd_pr__nfet_g5v0d10v5#dbody = 8.600800e-11
m.xm16.msky130_fd_pr__nfet_g5v0d10v5#sbody = 5.503929e-11
m.xm17.msky130_fd_pr__pfet_g5v0d10v5#body = 2.500000e+00
m.xm17.msky130_fd_pr__pfet_g5v0d10v5#dbody = 2.500000e+00
m.xm17.msky130_fd_pr__pfet_g5v0d10v5#sbody = 2.500000e+00
m.xm18.msky130_fd_pr__nfet_g5v0d10v5#body = 2.287576e-11
m.xm18.msky130_fd_pr__nfet_g5v0d10v5#dbody = 5.559781e-11
m.xm18.msky130_fd_pr__nfet_g5v0d10v5#sbody = 1.143789e-11
m.xm19.msky130_fd_pr__nfet_g5v0d10v5#body = 1.985671e-11
m.xm19.msky130_fd_pr__nfet_g5v0d10v5#dbody = 4.351906e-11
m.xm19.msky130_fd_pr__nfet_g5v0d10v5#sbody = 1.605106e-11
m.xm20.msky130_fd_pr__nfet_g5v0d10v5#body = 1.327411e-11
m.xm20.msky130_fd_pr__nfet_g5v0d10v5#dbody = 3.318525e-11
m.xm20.msky130_fd_pr__nfet_g5v0d10v5#sbody = 6.637065e-12
m.xm22.msky130_fd_pr__nfet_g5v0d10v5#body = 3.061387e-12
m.xm22.msky130_fd_pr__nfet_g5v0d10v5#dbody = 7.653463e-12
m.xm22.msky130_fd_pr__nfet_g5v0d10v5#sbody = 1.530698e-12
m.xm24.msky130_fd_pr__pfet_g5v0d10v5#body = 2.500000e+00
m.xm24.msky130_fd_pr__pfet_g5v0d10v5#dbody = 2.500000e+00
m.xm24.msky130_fd_pr__pfet_g5v0d10v5#sbody = 2.500000e+00
m.xm26.msky130_fd_pr__pfet_g5v0d10v5#body = 2.500000e+00
m.xm26.msky130Note: Starting true gmin stepping
Trying gmin =   1.0000E-03 Note: One successful gmin step
Trying gmin =   1.0000E-04 Note: One successful gmin step
Trying gmin =   1.0000E-05 Note: One successful gmin step
Trying gmin =   1.0000E-06 Note: One successful gmin step
Trying gmin =   1.0000E-07 Note: One successful gmin step
Trying gmin =   1.0000E-08 Warning: Further gmin increment
Trying gmin =   5.6234E-08 Warning: Further gmin increment
Trying gmin =   8.6596E-08 Note: One successful gmin step
Trying gmin =   7.4989E-08 Note: One successful gmin step
Trying gmin =   6.0430E-08 Note: One successful gmin step
Trying gmin =   4.3714E-08 Note: One successful gmin step
Trying gmin =   2.6896E-08 Note: One successful gmin step
Trying gmin =   1.2980E-08 Note: One successful gmin step
Trying gmin =   4.3518E-09 Note: One successful gmin step
Trying gmin =   8.4481E-10 Note: One successful gmin step
Trying gmin =   8.4481E-11 Note: One successful gmin step
Trying gmin =   8.4481E-12 Note: One successful gmin step
Trying gmin =   1.0000E-12 Note: One successful gmin step
Note: True gmin stepping completed
_fd_pr__pfet_g5v0d10v5#dbody = 2.500000e+00
m.xm26.msky130_fd_pr__pfet_g5v0d10v5#sbody = 2.500000e+00
mir = 1.340718e+00
net1 = 7.700153e-01
net2 = 1.222666e-04
net3 = 8.236525e-01
net4 = 2.449032e-01
net5 = 1.343624e+00
net6 = 1.011717e+00
net7 = 8.236326e-01
net8 = 1.406545e+00
net9 = 1.428430e+00
net10 = 1.825368e-01
net11 = 1.766396e+00
net12 = 1.766396e+00
net13 = 0.000000e+00
out = 1.766396e+00
pos = 1.193224e+00
q.xq2.qsky130_fd_pr__pnp_05v5_w0p68l0p68#collcx = 1.855054e-03
q.xq3.qsky130_fd_pr__pnp_05v5_w0p68l0p68#collcx = 2.334651e-04
q.xq4.qsky130_fd_pr__pnp_05v5_w0p68l0p68#collcx = 2.334651e-04
q.xq8.qsky130_fd_pr__pnp_05v5_w0p68l0p68#collcx = 2.334651e-04
q.xq10.qsky130_fd_pr__pnp_05v5_w0p68l0p68#collcx = 2.334651e-04
q.xq12.qsky130_fd_pr__pnp_05v5_w0p68l0p68#collcx = 2.334651e-04
q.xq14.qsky130_fd_pr__pnp_05v5_w0p68l0p68#collcx = 2.334651e-04
q.xq16.qsky130_fd_pr__pnp_05v5_w0p68l0p68#collcx = 2.334651e-04
q.xq18.qsky130_fd_pr__pnp_05v5_w0p68l0p68#collcx = 2.334651e-04
vb = 1.061927e+00
vdd = 2.500000e+00
vs#branch = -1.70812e-04
vt#branch = 0.000000e+00
xc1.a = 0.000000e+00
xc1.b1 = 0.000000e+00
xc3.a = 1.766396e+00
xc3.b1 = 1.766396e+00
xr1.xsky130_fd_pr__res_xhigh_po_0p69.ra = 8.287321e-01
xr2.xsky130_fd_pr__res_xhigh_po_0p69.ra = 8.287520e-01
xr3.xsky130_fd_pr__res_xhigh_po_0p69.ra = 3.639972e-03
xr4.xsky130_fd_pr__res_xhigh_po_0p69.ra = 7.715606e-01
xr5.xsky130_fd_pr__res_xhigh_po_0p69.ra = 3.639878e-03
xr6.xsky130_fd_pr__res_xhigh_po_0p69.ra = 5.430672e-03
xr7.xsky130_fd_pr__res_xhigh_po_0p69.ra = 1.766396e+00
xr8.xsky130_fd_pr__res_xhigh_po_0p69.ra = 1.202257e+00
xr9.xsky130_fd_pr__res_xhigh_po_0p69.ra = 9.472912e-03
Doing analysis at TEMP = 0.000000 and TNOM = 27.000000


No. of Data Rows : 91
Note: Starting true gmin stepping
Trying gmin =   1.0000E-03 Note: One successful gmin step
Trying gmin =   1.0000E-04 Note: One successful gmin step
Trying gmin =   1.0000E-05 Note: One successful gmin step
Trying gmin =   1.0000E-06 Note: One successful gmin step
Trying gmin =   1.0000E-07 Note: One successful gmin step
Trying gmin =   1.0000E-08 Warning: Further gmin increment
Trying gmin =   5.6234E-08 Warning: Further gmin increment
Trying gmin =   8.6596E-08 Note: One successful gmin step
Trying gmin =   7.4989E-08 Note: One successful gmin step
Trying gmin =   6.0430E-08 Note: One successful gmin step
Trying gmin =   4.3714E-08 Note: One successful gmin step
Trying gmin =   2.6896E-08 Note: One successful gmin step
Trying gmin =   1.2980E-08 Note: One successful gmin step
Trying gmin =   4.3518E-09 Note: One successful gmin step
Trying gmin =   8.4481E-10 Note: One successful gmin step
Trying gmin =   8.4481E-11 Note: One successful gmin step
Trying gmin =   8.4481E-12 Note: One successful gmin step
Trying gmin =   1.0000E-12 Note: One successful gmin step
Note: True gmin stepping completed
 Reference value :  1.00000e+00Note: Starting true gmin stepping
Trying gmin =   1.0000E-03 Note: One successful gmin step
Trying gmin =   1.0000E-04 Note: One successful gmin step
Trying gmin =   1.0000E-05 Note: One successful gmin step
Trying gmin =   1.0000E-06 Note: One successful gmin step
Trying gmin =   1.0000E-07 Warning: Further gmin increment
Trying gmin =   5.6234E-07 Note: One successful gmin step
Trying gmin =   2.3714E-07 Note: One successful gmin step
Trying gmin =   6.4938E-08 Warning: Further gmin increment
Trying gmin =   1.7154E-07 Note: One successful gmin step
Trying gmin =   1.0554E-07 Warning: Further gmin increment
Trying gmin =   1.5193E-07 Note: One successful gmin step
Trying gmin =   1.2663E-07 Note: One successful gmin step
Trying gmin =   9.6358E-08 Warning: Further gmin increment
Trying gmin =   1.1827E-07 Note: One successful gmin step
Trying gmin =   1.0675E-07 Warning: Further gmin increment
Trying gmin =   1.1528E-07 Warning: Further gmin increment
Trying gmin =   1.1752E-07 Note: One successful gmin step
Trying gmin =   1.1639E-07 Note: One successful gmin step
Trying gmin =   1.1473E-07 Warning: Further gmin increment
Trying gmin =   1.1597E-07 Warning: Further gmin increment
Trying gmin =   1.1629E-07 Note: One successful gmin step
Trying gmin =   1.1613E-07 Note: One successful gmin step
Trying gmin =   1.1590E-07 Warning: Further gmin increment
Trying gmin =   1.1607E-07 Note: One successful gmin step
Trying gmin =   1.1598E-07 Warning: Further gmin increment
Trying gmin =   1.1605E-07 Note: One successful gmin step
Trying gmin =   1.1602E-07 Note: One successful gmin step
Trying gmin =   1.1597E-07 Warning: Further gmin increment
Trying gmin =   1.1600E-07 Warning: Further gmin increment
Trying gmin =   1.1601E-07 Note: One successful gmin step
Trying gmin =   1.1601E-07 Note: One successful gmin step
Trying gmin =   1.1600E-07 Warning: Further gmin increment
Trying gmin =   1.1601E-07 Note: One successful gmin step
Trying gmin =   1.1600E-07 Warning: Last gmin step failed
Warning: True gmin stepping failed
Note: Starting dynamic gmin stepping
Trying gmin =   1.0000E-03 Note: One successful gmin step
Trying gmin =   1.0000E-04 Note: One successful gmin step
Trying gmin =   1.0000E-05 Warning: Further gmin increment
Trying gmin =   5.6234E-05 Note: One successful gmin step
Trying gmin =   2.3714E-05 Note: One successful gmin step
Trying gmin =   6.4938E-06 Warning: Further gmin increment
Trying gmin =   1.7154E-05 Note: One successful gmin step
Trying gmin =   1.0554E-05 Warning: Further gmin increment
Trying gmin =   1.5193E-05 Note: One successful gmin step
Trying gmin =   1.2663E-05 Note: One successful gmin step
Trying gmin =   9.6358E-06 Warning: Further gmin increment
Trying gmin =   1.1827E-05 Note: One successful gmin step
Trying gmin =   1.0675E-05 Warning: Further gmin increment
Trying gmin =   1.1528E-05 Note: One successful gmin step
Trying gmin =   1.1093E-05 Note: One successful gmin step
Trying gmin =   1.0675E-05 Note: One successful gmin step
Trying gmin =   1.0078E-05 Note: One successful gmin step
Trying gmin =   9.2430E-06 Note: One successful gmin step
Trying gmin =   8.1189E-06 Note: One successful gmin step
Trying gmin =   6.6839E-06 Note: One successful gmin step
Trying gmin =   4.9925E-06 Note: One successful gmin step
Trying gmin =   3.7292E-06 Note: One successful gmin step
Trying gmin =   2.7855E-06 Note: One successful gmin step
Trying gmin =   1.7983E-06 Note: One successful gmin step
Trying gmin =   9.3275E-07 Warning: Further gmin increment
Trying gmin =   1.5261E-06 Note: One successful gmin step
Trying gmin =   1.1931E-06 Warning: Further gmin increment
Trying gmin =   1.4350E-06 Warning: Further gmin increment
Trying gmin =   1.5028E-06 Warning: Further gmin increment
Trying gmin =   1.5202E-06 Note: One successful gmin step
Trying gmin =   1.5144E-06 Note: One successful gmin step
Trying gmin =   1.5057E-06 Note: One successful gmin step
Trying gmin =   1.4927E-06 Note: One successful gmin step
Trying gmin =   1.4735E-06 Note: One successful gmin step
Trying gmin =   1.4450E-06 Note: One successful gmin step
Trying gmin =   1.4034E-06 Note: One successful gmin step
Trying gmin =   1.3433E-06 Note: One successful gmin step
Trying gmin =   1.2578E-06 Note: One successful gmin step
Trying gmin =   1.1398E-06 Note: One successful gmin step
Trying gmin =   9.8311E-07 Note: One successful gmin step
Trying gmin =   7.8754E-07 Note: One successful gmin step
Trying gmin =   5.6466E-07 Note: One successful gmin step
Trying gmin =   3.4281E-07 Note: One successful gmin step
Trying gmin =   1.6216E-07 Note: One successful gmin step
Trying gmin =   5.2760E-08 Note: One successful gmin step
Trying gmin =   9.7912E-09 Note: One successful gmin step
Trying gmin =   9.7912E-10 Note: One successful gmin step
Trying gmin =   9.7912E-11 Note: One successful gmin step
Trying gmin =   9.7912E-12 Note: One successful gmin step
Trying gmin =   1.0000E-12 Note: One successful gmin step
Note: Dynamic gmin stepping completed
 Reference value :  2.80000e+00Note: Starting true gmin stepping
Trying gmin =   1.0000E-03 Note: One successful gmin step
Trying gmin =   1.0000E-04 Note: One successful gmin step
Trying gmin =   1.0000E-05 Note: One successful gmin step
Trying gmin =   1.0000E-06 Note: One successful gmin step
Trying gmin =   1.0000E-07 Note: One successful gmin step
Trying gmin =   1.0000E-08 Warning: Further gmin increment
Trying gmin =   5.6234E-08 Note: One successful gmin step
Trying gmin =   2.3714E-08 Note: One successful gmin step
Trying gmin =   6.4938E-09 Note: One successful gmin step
Trying gmin =   9.3057E-10 Note: One successful gmin step
Trying gmin =   9.3057E-11 Note: One successful gmin step
Trying gmin =   9.3057E-12 Note: One successful gmin step
Trying gmin =   1.0000E-12 Warning: Further gmin increment
Trying gmin =   5.3280E-12 Warning: Further gmin increment
Trying gmin =   8.0947E-12 Note: One successful gmin step
Trying gmin =   6.5672E-12 Note: One successful gmin step
Trying gmin =   4.7990E-12 Warning: Further gmin increment
Trying gmin =   6.0719E-12 Note: One successful gmin step
Trying gmin =   5.3981E-12 Warning: Further gmin increment
Trying gmin =   5.8959E-12 Note: One successful gmin step
Trying gmin =   5.6415E-12 Note: One successful gmin step
Trying gmin =   5.2803E-12 Warning: Further gmin increment
Trying gmin =   5.5490E-12 Note: One successful gmin step
Trying gmin =   5.4130E-12 Warning: Further gmin increment
Trying gmin =   5.5147E-12 Warning: Further gmin increment
Trying gmin =   5.5404E-12 Note: One successful gmin step
Trying gmin =   5.5275E-12 Note: One successful gmin step
Trying gmin =   5.5082E-12 Warning: Further gmin increment
Trying gmin =   5.5227E-12 Note: One successful gmin step
Trying gmin =   5.5179E-12 Warning: Further gmin increment
Trying gmin =   5.5215E-12 Note: One successful gmin step
Trying gmin =   5.5197E-12 Note: One successful gmin step
Trying gmin =   5.5188E-12 Note: One successful gmin step
Trying gmin =   5.5183E-12 Warning: Further gmin increment
Trying gmin =   5.5187E-12 Note: One successful gmin step
Trying gmin =   5.5185E-12 Note: One successful gmin step
Trying gmin =   5.5184E-12 Note: One successful gmin step
Trying gmin =   5.5181E-12 Warning: Last gmin step failed
Note: True gmin stepping completed
 Reference value :  1.24000e+00Note: Starting true gmin stepping
Trying gmin =   1.0000E-03 Note: One successful gmin step
Trying gmin =   1.0000E-04 Note: One successful gmin step
Trying gmin =   1.0000E-05 Note: One successful gmin step
Trying gmin =   1.0000E-06 Note: One successful gmin step
Trying gmin =   1.0000E-07 Note: One successful gmin step
Trying gmin =   1.0000E-08 Note: One successful gmin step
Trying gmin =   3.1623E-09 Note: One successful gmin step
Trying gmin =   5.6234E-10 Note: One successful gmin step
Trying gmin =   5.6234E-11 Note: One successful gmin step
Trying gmin =   5.6234E-12 Note: One successful gmin step
Trying gmin =   1.0000E-12 Warning: Further gmin increment
Trying gmin =   3.6517E-12 Note: One successful gmin step
Trying gmin =   1.9110E-12 Warning: Further gmin increment
Trying gmin =   3.1059E-12 Note: One successful gmin step
Trying gmin =   2.4362E-12 Note: One successful gmin step
Trying gmin =   1.9110E-12 Note: One successful gmin step
Trying gmin =   1.3275E-12 Note: One successful gmin step
Trying gmin =   1.0000E-12 Note: One successful gmin step
Note: True gmin stepping completed
Note: Starting true gmin stepping
Trying gmin =   1.0000E-03 Note: One successful gmin step
Trying gmin =   1.0000E-04 Note: One successful gmin step
Trying gmin =   1.0000E-05 Note: One successful gmin step
Trying gmin =   1.0000E-06 Note: One successful gmin step
Trying gmin =   1.0000E-07 Note: One successful gmin step
Trying gmin =   1.0000E-08 Note: One successful gmin step
Trying gmin =   1.0000E-09 Note: One successful gmin step
Trying gmin =   1.0000E-10 Note: One successful gmin step
Trying gmin =   1.0000E-11 Note: One successful gmin step
Trying gmin =   1.0000E-12 Error: -7.07492e+170, 2 out of range for ^
Warning: Further gmin increment
Trying gmin =   5.6234E-12 Note: One successful gmin step
Trying gmin =   2.3714E-12 Note: One successful gmin step
Trying gmin =   1.0000E-12 Warning: Further gmin increment
Trying gmin =   1.9110E-12 Note: One successful gmin step
Trying gmin =   1.5399E-12 Warning: Further gmin increment
Trying gmin =   1.8106E-12 Note: One successful gmin step
Trying gmin =   1.6698E-12 Warning: Further gmin increment
Trying gmin =   1.7743E-12 Note: One successful gmin step
Trying gmin =   1.7387E-12 Note: One successful gmin step
Trying gmin =   1.7212E-12 Note: One successful gmin step
Trying gmin =   1.7039E-12 Note: One successful gmin step
Trying gmin =   1.6782E-12 Note: One successful gmin step
Trying gmin =   1.6405E-12 Note: One successful gmin step
Trying gmin =   1.5854E-12 Note: One successful gmin step
Trying gmin =   1.5062E-12 Note: One successful gmin step
Trying gmin =   1.3948E-12 Note: One successful gmin step
Trying gmin =   1.2430E-12 Note: One successful gmin step
Trying gmin =   1.0456E-12 Note: One successful gmin step
Trying gmin =   1.0000E-12 Note: One successful gmin step
Note: True gmin stepping completed
 Reference value :  1.16000e+00pm                  =  5.131229e+01
Doing analysis at TEMP = 0.000000 and TNOM = 27.000000


No. of Data Rows : 91
psrr100             =  -6.012992e+01
psrr100k            =  -2.707769e+01
Doing analysis at TEMP = 0.000000 and TNOM = 27.000000


No. of Data Rows : 86
temp_coeff = 3.268202e+02
Doing analysis at TEMP = 0.000000 and TNOM = 27.000000


No. of Data Rows : 141
vldo_sup_2          =  1.795311e+00
vldo_sup_2_8        =  1.794250e+00
line_reg = 1.326250e-03
Note: No ".plot", ".print", or ".fourier" lines; no simulations run
vin                 =  1.764095e+00
dropout = 9.500000e-05
