 Reference value :  0.00000e+00
No compatibility mode selected!


Circuit: * ldo netlist 

Doing analysis at TEMP = 85.000000 and TNOM = 27.000000


No. of Data Rows : 1
bg_out = 1.196877e+00
inn = 1.143148e+00
inp = 1.143097e+00
l1#branch = 0.000000e+00
ldo_out = 1.800263e+00
m.xm1.msky130_fd_pr__nfet_g5v0d10v5#body = 2.913676e-11
m.xm1.msky130_fd_pr__nfet_g5v0d10v5#dbody = 5.645307e-11
m.xm1.msky130_fd_pr__nfet_g5v0d10v5#sbody = 3.095721e-11
m.xm2.msky130_fd_pr__pfet_g5v0d10v5#body = 2.300000e+00
m.xm2.msky130_fd_pr__pfet_g5v0d10v5#dbody = 2.300000e+00
m.xm2.msky130_fd_pr__pfet_g5v0d10v5#sbody = 2.300000e+00
m.xm3.msky130_fd_pr__pfet_g5v0d10v5#body = 2.300000e+00
m.xm3.msky130_fd_pr__pfet_g5v0d10v5#dbody = 2.300000e+00
m.xm3.msky130_fd_pr__pfet_g5v0d10v5#sbody = 2.300000e+00
m.xm4.msky130_fd_pr__pfet_g5v0d10v5#body = 2.300000e+00
m.xm4.msky130_fd_pr__pfet_g5v0d10v5#dbody = 2.300000e+00
m.xm4.msky130_fd_pr__pfet_g5v0d10v5#sbody = 2.300000e+00
m.xm5.msky130_fd_pr__pfet_g5v0d10v5#body = 2.300000e+00
m.xm5.msky130_fd_pr__pfet_g5v0d10v5#dbody = 2.300000e+00
m.xm5.msky130_fd_pr__pfet_g5v0d10v5#sbody = 2.300000e+00
m.xm6.msky130_fd_pr__nfet_g5v0d10v5#body = 2.043777e-11
m.xm6.msky130_fd_pr__nfet_g5v0d10v5#dbody = 5.109432e-11
m.xm6.msky130_fd_pr__nfet_g5v0d10v5#sbody = 1.021899e-11
m.xm7.msky130_fd_pr__pfet_g5v0d10v5#body = 2.300000e+00
m.xm7.msky130_fd_pr__pfet_g5v0d10v5#dbody = 2.300000e+00
m.xm7.msky130_fd_pr__pfet_g5v0d10v5#sbody = 2.300000e+00
m.xm8.msky130_fd_pr__pfet_g5v0d10v5#body = 2.300000e+00
m.xm8.msky130_fd_pr__pfet_g5v0d10v5#dbody = 2.300000e+00
m.xm8.msky130_fd_pr__pfet_g5v0d10v5#sbody = 2.300000e+00
m.xm9.msky130_fd_pr__nfet_g5v0d10v5#body = 2.729864e-11
m.xm9.msky130_fd_pr__nfet_g5v0d10v5#dbody = 5.466610e-11
m.xm9.msky130_fd_pr__nfet_g5v0d10v5#sbody = 2.722982e-11
m.xm10.msky130_fd_pr__nfet_g5v0d10v5#body = 2.714771e-11
m.xm10.msky130_fd_pr__nfet_g5v0d10v5#dbody = 5.428878e-11
m.xm10.msky130_fd_pr__nfet_g5v0d10v5#sbody = 2.715436e-11
m.xm11.msky130_fd_pr__pfet_g5v0d10v5#body = 2.300000e+00
m.xm11.msky130_fd_pr__pfet_g5v0d10v5#dbody = 2.300000e+00
m.xm11.msky130_fd_pr__pfet_g5v0d10v5#sbody = 2.300000e+00
m.xm12.msky130_fd_pr__pfet_g5v0d10v5#body = 2.300000e+00
m.xm12.msky130_fd_pr__pfet_g5v0d10v5#dbody = 2.300000e+00
m.xm12.msky130_fd_pr__pfet_g5v0d10v5#sbody = 2.300000e+00
m.xm13.msky130_fd_pr__nfet_g5v0d10v5#body = 5.143395e-12
m.xm13.msky130_fd_pr__nfet_g5v0d10v5#dbody = 1.285842e-11
m.xm13.msky130_fd_pr__nfet_g5v0d10v5#sbody = 2.571761e-12
m.xm14.msky130_fd_pr__pfet_g5v0d10v5#body = 2.300000e+00
m.xm14.msky130_fd_pr__pfet_g5v0d10v5#dbody = 2.300000e+00
m.xm14.msky130_fd_pr__pfet_g5v0d10v5#sbody = 2.300000e+00
m.xm15.msky130_fd_pr__nfet_g5v0d10v5#body = 3.680945e-14
m.xm15.msky130_fd_pr__nfet_g5v0d10v5#dbody = 9.202215e-14
m.xm15.msky130_fd_pr__nfet_g5v0d10v5#sbody = 1.840621e-14
m.xm16.msky130_fd_pr__nfet_g5v0d10v5#body = 5.366791e-11
m.xm16.msky130_fd_pr__nfet_g5v0d10v5#dbody = 9.496251e-11
m.xm16.msky130_fd_pr__nfet_g5v0d10v5#sbody = 6.604121e-11
m.xm17.msky130_fd_pr__pfet_g5v0d10v5#body = 2.300000e+00
m.xm17.msky130_fd_pr__pfet_g5v0d10v5#dbody = 2.300000e+00
m.xm17.msky130_fd_pr__pfet_g5v0d10v5#sbody = 2.300000e+00
m.xm18.msky130_fd_pr__nfet_g5v0d10v5#body = 1.434749e-11
m.xm18.msky130_fd_pr__nfet_g5v0d10v5#dbody = 3.586865e-11
m.xm18.msky130_fd_pr__nfet_g5v0d10v5#sbody = 7.173818e-12
m.xm19.msky130_fd_pr__nfet_g5v0d10v5#body = 2.921305e-11
m.xm19.msky130_fd_pr__nfet_g5v0d10v5#dbody = 5.664378e-11
m.xm19.msky130_fd_pr__nfet_g5v0d10v5#sbody = 3.099535e-11
m.xm20.msky130_fd_pr__nfet_g5v0d10v5#body = 1.449221e-11
m.xm20.msky130_fd_pr__nfet_g5v0d10v5#dbody = 3.623044e-11
m.xm20.msky130_fd_pr__nfet_g5v0d10v5#sbody = 7.246176e-12
m.xm22.msky130_fd_pr__nfet_g5v0d10v5#body = 1.148683e-11
m.xm22.msky130_fd_pr__nfet_g5v0d10v5#dbody = 2.871698e-11
m.xm22.msky130_fd_pr__nfet_g5v0d10v5#sbody = 5.743519e-12
m.xm24.msky130_fd_pr__pfet_g5v0d10v5#body = 2.300000e+00
m.xm24.msky130_fd_pr__pfet_g5v0d10v5#dbody = 2.300000e+00
m.xm24.msky130_fd_pr__pfet_g5v0d10v5#sbody = 2.300000e+00
m.xm26.msky130_fd_pr__pfet_g5v0d10v5#body = 2.300000e+00
m.xm26.msky130_fd_pr__pfet_g5v0d10v5#dbody = 2.300000e+00
m.xm26.msky130_fd_pr__pfet_g5v0d10v5#sbody = 2.300000e+00
mir = 1.250245e+00
net1 = 6.284702e-01
net2 = 7.096166e-05
net3 = 7.017134e-01
net4 = 2.308204e-01
net5 = 1.256348e+00
net6 = 9.462314e-01
net7 = 7.016608e-01
net8 = 1.335276e+00
net9 = 1.347351e+00
net10 = 2.500583e-01
net11 = 9.862980e-01
net12 = 9.862980e-01
net13 = 0.000000e+00
out = 9.862980e-01
pos = 1.197007e+00
q.xq2.qsky130_fd_pr__pnp_05v5_w0p68l0p68#collcx = 2.837207e-03
q.xq3.qsky130_fd_pr__pnp_05v5_w0p68l0p68#collcx = 3.579213e-04
q.xq4.qsky130_fd_pr__pnp_05v5_w0p68l0p68#collcx = 3.579213e-04
q.xq8.qsky130_fd_pr__pnp_05v5_w0p68l0p68#collcx = 3.579213e-04
q.xq10.qsky130_fd_pr__pnp_05v5_w0p68l0p68#collcx = 3.579213e-04
q.xq12.qsky130_fd_pr__pnp_05v5_w0p68l0p68#collcx = 3.579213e-04
q.xq14.qsky130_fd_pr__pnp_05v5_w0p68l0p68#collcx = 3.579213e-04
q.xq16.qsky130_fd_pr__pnp_05v5_w0p68l0p68#collcx = 3.579213e-04
q.xq18.qsky130_fd_pr__pnp_05v5_w0p68l0p68#collcx = 3.579213e-04
vb = 9.978754e-01
vdd = 2.300000e+00
vs#branch = -1.00145e-01
vt#branch = 0.000000e+00
xc1.a = 0.000000e+00
xc1.b1 = 0.000000e+00
xc3.a = 9.862980e-01
xc3.b1 = 9.862980e-01
xr1.xsky130_fd_pr__res_xhigh_po_0p69.ra = 7.098889e-01
xr2.xsky130_fd_pr__res_xhigh_po_0p69.ra = 7.099414e-01
xr3.xsky130_fd_pr__res_xhigh_po_0p69.ra = 4.908761e-03
xr4.xsky130_fd_pr__res_xhigh_po_0p69.ra = 6.318358e-01
xr5.xsky130_fd_pr__res_xhigh_po_0p69.ra = 4.908372e-03
xr6.xsky130_fd_pr__res_xhigh_po_0p69.ra = 8.713515e-03
xr7.xsky130_fd_pr__res_xhigh_po_0p69.ra = 9.862980e-01
xr8.xsky130_fd_pr__res_xhigh_po_0p69.ra = 1.211497e+00
xr9.xsky130_fd_pr__res_xhigh_po_0p69.ra = 1.519752e-02
Doing analysis at TEMP = 85.000000 and TNOM = 27.000000


No. of Data Rows : 91
Note: Starting true gmin stepping
Trying gmin =   1.0000E-03 Note: One successful gmin step
Trying gmin =   1.0000E-04 Note: One successful gmin step
Trying gmin =   1.0000E-05 Note: One successful gmin step
Trying gmin =   1.0000E-06 Note: One successful gmin step
Trying gmin =   1.0000E-07 Warning: Further gmin increment
Trying gmin =   5.6234E-07 Note: One successful gmin step
Trying gmin =   2.3714E-07 Note: One successful gmin step
Trying gmin =   6.4938E-08 Warning: Further gmin increment
Trying gmin =   1.7154E-07 Note: One successful gmin step
Trying gmin =   1.0554E-07 Warning: Further gmin increment
Trying gmin =   1.5193E-07 Note: One successful gmin step
Trying gmin =   1.2663E-07 Warning: Further gmin increment
Trying gmin =   1.4517E-07 Warning: Further gmin increment
Trying gmin =   1.5021E-07 Note: One successful gmin step
Trying gmin =   1.4767E-07 Note: One successful gmin step
Trying gmin =   1.4393E-07 Warning: Further gmin increment
Trying gmin =   1.4672E-07 Note: One successful gmin step
Trying gmin =   1.4532E-07 Warning: Further gmin increment
Trying gmin =   1.4637E-07 Note: One successful gmin step
Trying gmin =   1.4585E-07 Note: One successful gmin step
Trying gmin =   1.4506E-07 Warning: Further gmin increment
Trying gmin =   1.4565E-07 Warning: Further gmin increment
Trying gmin =   1.4580E-07 Note: One successful gmin step
Trying gmin =   1.4572E-07 Note: One successful gmin step
Trying gmin =   1.4561E-07 Warning: Further gmin increment
Trying gmin =   1.4569E-07 Warning: Further gmin increment
Trying gmin =   1.4572E-07 Note: One successful gmin step
Trying gmin =   1.4571E-07 Note: One successful gmin step
Trying gmin =   1.4569E-07 Warning: Further gmin increment
Trying gmin =   1.4570E-07 Note: One successful gmin step
Trying gmin =   1.4570E-07 Warning: Last gmin step failed
Warning: True gmin stepping failed
Note: Starting dynamic gmin stepping
Trying gmin =   1.0000E-03 Note: One successful gmin step
Trying gmin =   1.0000E-04 Note: One successful gmin step
Trying gmin =   1.0000E-05 Note: One successful gmin step
Trying gmin =   1.0000E-06 Note: One successful gmin step
Trying gmin =   1.0000E-07 Note: One successful gmin step
Trying gmin =   1.0000E-08 Note: One successful gmin step
Trying gmin =   1.0000E-09 Note: One successful gmin step
Trying gmin =   1.0000E-10 Note: One successful gmin step
Trying gmin =   1.0000E-11 Note: One successful gmin step
Trying gmin =   1.0000E-12 Note: One successful gmin step
Trying gmin =   1.0000E-12 Note: One successful gmin step
Note: Dynamic gmin stepping completed
 Reference value :  2.80000e+00Note: Starting true gmin stepping
Trying gmin =   1.0000E-03 Note: One successful gmin step
Trying gmin =   1.0000E-04 Note: One successful gmin step
Trying gmin =   1.0000E-05 Note: One successful gmin step
Trying gmin =   1.0000E-06 Note: One successful gmin step
Trying gmin =   1.0000E-07 Note: One successful gmin step
Trying gmin =   1.0000E-08 Note: One successful gmin step
Trying gmin =   1.0000E-09 Note: One successful gmin step
Trying gmin =   1.0000E-10 Warning: Further gmin increment
Trying gmin =   5.6234E-10 Note: One successful gmin step
Trying gmin =   3.1623E-10 Note: One successful gmin step
Trying gmin =   1.3335E-10 Note: One successful gmin step
Trying gmin =   3.6517E-11 Note: One successful gmin step
Trying gmin =   5.2330E-12 Note: One successful gmin step
Trying gmin =   1.0000E-12 Note: One successful gmin step
Note: True gmin stepping completed
 Reference value :  8.00000e-01pm                  =  1.473536e+02
Doing analysis at TEMP = 85.000000 and TNOM = 27.000000


No. of Data Rows : 91
psrr100             =  -5.058071e+01
psrr100k            =  -2.448282e+01
Doing analysis at TEMP = 85.000000 and TNOM = 27.000000


No. of Data Rows : 86
temp_coeff = 9.273600e+01
Doing analysis at TEMP = 85.000000 and TNOM = 27.000000


No. of Data Rows : 141
vldo_sup_2          =  1.799115e+00
vldo_sup_2_8        =  1.801524e+00
line_reg = 3.011250e-03
Note: No ".plot", ".print", or ".fourier" lines; no simulations run
vin                 =  1.916109e+00
dropout = 1.521090e-01
