 Reference value :  0.00000e+00
No compatibility mode selected!


Circuit: * ldo netlist 

Doing analysis at TEMP = 27.000000 and TNOM = 27.000000


No. of Data Rows : 1
bg_out = 1.190811e+00
inn = 1.219915e+00
inp = 1.219910e+00
l1#branch = 0.000000e+00
ldo_out = 1.791821e+00
m.xm1.msky130_fd_pr__nfet_g5v0d10v5#body = 2.082668e-11
m.xm1.msky130_fd_pr__nfet_g5v0d10v5#dbody = 4.402322e-11
m.xm1.msky130_fd_pr__nfet_g5v0d10v5#sbody = 1.845682e-11
m.xm2.msky130_fd_pr__pfet_g5v0d10v5#body = 2.500000e+00
m.xm2.msky130_fd_pr__pfet_g5v0d10v5#dbody = 2.500000e+00
m.xm2.msky130_fd_pr__pfet_g5v0d10v5#sbody = 2.500000e+00
m.xm3.msky130_fd_pr__pfet_g5v0d10v5#body = 2.500000e+00
m.xm3.msky130_fd_pr__pfet_g5v0d10v5#dbody = 2.500000e+00
m.xm3.msky130_fd_pr__pfet_g5v0d10v5#sbody = 2.500000e+00
m.xm4.msky130_fd_pr__pfet_g5v0d10v5#body = 2.500000e+00
m.xm4.msky130_fd_pr__pfet_g5v0d10v5#dbody = 2.500000e+00
m.xm4.msky130_fd_pr__pfet_g5v0d10v5#sbody = 2.500000e+00
m.xm5.msky130_fd_pr__pfet_g5v0d10v5#body = 2.500000e+00
m.xm5.msky130_fd_pr__pfet_g5v0d10v5#dbody = 2.500000e+00
m.xm5.msky130_fd_pr__pfet_g5v0d10v5#sbody = 2.500000e+00
m.xm6.msky130_fd_pr__nfet_g5v0d10v5#body = 1.134003e-11
m.xm6.msky130_fd_pr__nfet_g5v0d10v5#dbody = 2.835007e-11
m.xm6.msky130_fd_pr__nfet_g5v0d10v5#sbody = 5.670021e-12
m.xm7.msky130_fd_pr__pfet_g5v0d10v5#body = 2.500000e+00
m.xm7.msky130_fd_pr__pfet_g5v0d10v5#dbody = 2.500000e+00
m.xm7.msky130_fd_pr__pfet_g5v0d10v5#sbody = 2.500000e+00
m.xm8.msky130_fd_pr__pfet_g5v0d10v5#body = 2.500000e+00
m.xm8.msky130_fd_pr__pfet_g5v0d10v5#dbody = 2.500000e+00
m.xm8.msky130_fd_pr__pfet_g5v0d10v5#sbody = 2.500000e+00
m.xm9.msky130_fd_pr__nfet_g5v0d10v5#body = 2.147581e-11
m.xm9.msky130_fd_pr__nfet_g5v0d10v5#dbody = 4.650190e-11
m.xm9.msky130_fd_pr__nfet_g5v0d10v5#sbody = 1.792552e-11
m.xm10.msky130_fd_pr__nfet_g5v0d10v5#body = 2.135472e-11
m.xm10.msky130_fd_pr__nfet_g5v0d10v5#dbody = 4.619917e-11
m.xm10.msky130_fd_pr__nfet_g5v0d10v5#sbody = 1.786498e-11
m.xm11.msky130_fd_pr__pfet_g5v0d10v5#body = 2.500000e+00
m.xm11.msky130_fd_pr__pfet_g5v0d10v5#dbody = 2.500000e+00
m.xm11.msky130_fd_pr__pfet_g5v0d10v5#sbody = 2.500000e+00
m.xm12.msky130_fd_pr__pfet_g5v0d10v5#body = 2.500000e+00
m.xm12.msky130_fd_pr__pfet_g5v0d10v5#dbody = 2.500000e+00
m.xm12.msky130_fd_pr__pfet_g5v0d10v5#sbody = 2.500000e+00
m.xm13.msky130_fd_pr__nfet_g5v0d10v5#body = 3.592451e-12
m.xm13.msky130_fd_pr__nfet_g5v0d10v5#dbody = 8.981117e-12
m.xm13.msky130_fd_pr__nfet_g5v0d10v5#sbody = 1.796237e-12
m.xm14.msky130_fd_pr__pfet_g5v0d10v5#body = 2.500000e+00
m.xm14.msky130_fd_pr__pfet_g5v0d10v5#dbody = 2.500000e+00
m.xm14.msky130_fd_pr__pfet_g5v0d10v5#sbody = 2.500000e+00
m.xm15.msky130_fd_pr__nfet_g5v0d10v5#body = 7.363623e-16
m.xm15.msky130_fd_pr__nfet_g5v0d10v5#dbody = 1.840841e-15
m.xm15.msky130_fd_pr__nfet_g5v0d10v5#sbody = 3.682462e-16
m.xm16.msky130_fd_pr__nfet_g5v0d10v5#body = 4.650758e-11
m.xm16.msky130_fd_pr__nfet_g5v0d10v5#dbody = 8.576244e-11
m.xm16.msky130_fd_pr__nfet_g5v0d10v5#sbody = 5.376031e-11
m.xm17.msky130_fd_pr__pfet_g5v0d10v5#body = 2.500000e+00
m.xm17.msky130_fd_pr__pfet_g5v0d10v5#dbody = 2.500000e+00
m.xm17.msky130_fd_pr__pfet_g5v0d10v5#sbody = 2.500000e+00
m.xm18.msky130_fd_pr__nfet_g5v0d10v5#body = 1.422560e-11
m.xm18.msky130_fd_pr__nfet_g5v0d10v5#dbody = 3.556398e-11
m.xm18.msky130_fd_pr__nfet_g5v0d10v5#sbody = 7.112813e-12
m.xm19.msky130_fd_pr__nfet_g5v0d10v5#body = 2.083479e-11
m.xm19.msky130_fd_pr__nfet_g5v0d10v5#dbody = 4.404350e-11
m.xm19.msky130_fd_pr__nfet_g5v0d10v5#sbody = 1.846088e-11
m.xm20.msky130_fd_pr__nfet_g5v0d10v5#body = 1.136161e-11
m.xm20.msky130_fd_pr__nfet_g5v0d10v5#dbody = 2.840400e-11
m.xm20.msky130_fd_pr__nfet_g5v0d10v5#sbody = 5.680816e-12
m.xm22.msky130_fd_pr__nfet_g5v0d10v5#body = 4.024453e-12
m.xm22.msky130_fd_pr__nfet_g5v0d10v5#dbody = 1.006113e-11
m.xm22.msky130_fd_pr__nfet_g5v0d10v5#sbody = 2.012231e-12
m.xm24.msky130_fd_pr__pfet_g5v0d10v5#body = 2.500000e+00
m.xm24.msky130_fd_pr__pfet_g5v0d10v5#dbody = 2.500000e+00
m.xm24.msky130_fd_pr__pfet_g5v0d10v5#sbody = 2.500000e+00
m.xm26.msky130_fd_pr__pfet_g5v0d10v5#body = 2.500000e+00
m.xm26.msky130_fd_pr__pfet_g5v0d10v5#dbody = 2.500000e+00
m.xm26.msky130_fd_pr__pfet_g5v0d10v5#sbody = 2.500000e+00
mir = 1.344049e+00
net1 = 7.215614e-01
net2 = 5.666251e-05
net3 = 7.815538e-01
net4 = 3.213931e-01
net5 = 1.344698e+00
net6 = 9.066394e-01
net7 = 7.815488e-01
net8 = 1.420635e+00
net9 = 1.430322e+00
net10 = 2.872672e-01
net11 = 1.137919e+00
net12 = 1.137919e+00
net13 = 0.000000e+00
out = 1.137919e+00
pos = 1.190899e+00
q.xq2.qsky130_fd_pr__pnp_05v5_w0p68l0p68#collcx = 2.339879e-03
q.xq3.qsky130_fd_pr__pnp_05v5_w0p68l0p68#collcx = 2.940711e-04
q.xq4.qsky130_fd_pr__pnp_05v5_w0p68l0p68#collcx = 2.940711e-04
q.xq8.qsky130_fd_pr__pnp_05v5_w0p68l0p68#collcx = 2.940711e-04
q.xq10.qsky130_fd_pr__pnp_05v5_w0p68l0p68#collcx = 2.940711e-04
q.xq12.qsky130_fd_pr__pnp_05v5_w0p68l0p68#collcx = 2.940711e-04
q.xq14.qsky130_fd_pr__pnp_05v5_w0p68l0p68#collcx = 2.940711e-04
q.xq16.qsky130_fd_pr__pnp_05v5_w0p68l0p68#collcx = 2.940711e-04
q.xq18.qsky130_fd_pr__pnp_05v5_w0p68l0p68#collcx = 2.940711e-04
vb = 9.087996e-01
vdd = 2.500000e+00
vs#branch = -9.96779e-02
vt#branch = 0.000000e+00
xc1.a = 0.000000e+00
xc1.b1 = 0.000000e+00
xc3.a = 1.137919e+00
xc3.b1 = 1.137919e+00
xr1.xsky130_fd_pr__res_xhigh_po_0p69.ra = 7.844405e-01
xr2.xsky130_fd_pr__res_xhigh_po_0p69.ra = 7.844454e-01
xr3.xsky130_fd_pr__res_xhigh_po_0p69.ra = 1.951311e-03
xr4.xsky130_fd_pr__res_xhigh_po_0p69.ra = 7.225387e-01
xr5.xsky130_fd_pr__res_xhigh_po_0p69.ra = 1.951298e-03
xr6.xsky130_fd_pr__res_xhigh_po_0p69.ra = 3.072811e-03
xr7.xsky130_fd_pr__res_xhigh_po_0p69.ra = 1.137919e+00
xr8.xsky130_fd_pr__res_xhigh_po_0p69.ra = 1.196007e+00
xr9.xsky130_fd_pr__res_xhigh_po_0p69.ra = 5.355967e-03
Doing analysis at TEMP = 27.000000 and TNOM = 27.000000


No. of Data Rows : 91
Note: Starting true gmin stepping
Trying gmin =   1.0000E-03 Note: One successful gmin step
Trying gmin =   1.0000E-04 Note: One successful gmin step
Trying gmin =   1.0000E-05 Note: One successful gmin step
Trying gmin =   1.0000E-06 Note: One successful gmin step
Trying gmin =   1.0000E-07 Note: One successful gmin step
Trying gmin =   1.0000E-08 Warning: Further gmin increment
Trying gmin =   5.6234E-08 Note: One successful gmin step
Trying gmin =   2.3714E-08 Warning: Further gmin increment
Trying gmin =   4.5316E-08 Warning: Further gmin increment
Trying gmin =   5.3280E-08 Note: One successful gmin step
Trying gmin =   4.9137E-08 Note: One successful gmin step
Trying gmin =   4.3518E-08 Warning: Further gmin increment
Trying gmin =   4.7668E-08 Note: One successful gmin step
Trying gmin =   4.5546E-08 Warning: Further gmin increment
Trying gmin =   4.7128E-08 Note: One successful gmin step
Trying gmin =   4.6330E-08 Note: One successful gmin step
Trying gmin =   4.5158E-08 Warning: Further gmin increment
Trying gmin =   4.6034E-08 Warning: Further gmin increment
Trying gmin =   4.6256E-08 Warning: Further gmin increment
Trying gmin =   4.6312E-08 Note: One successful gmin step
Trying gmin =   4.6284E-08 Note: One successful gmin step
Trying gmin =   4.6242E-08 Warning: Further gmin increment
Trying gmin =   4.6273E-08 Note: One successful gmin step
Trying gmin =   4.6258E-08 Warning: Further gmin increment
Trying gmin =   4.6269E-08 Note: One successful gmin step
Trying gmin =   4.6264E-08 Warning: Further gmin increment
Trying gmin =   4.6268E-08 Note: One successful gmin step
Trying gmin =   4.6266E-08 Note: One successful gmin step
Trying gmin =   4.6262E-08 Warning: Further gmin increment
Trying gmin =   4.6265E-08 Note: One successful gmin step
Trying gmin =   4.6264E-08 Warning: Last gmin step failed
Warning: True gmin stepping failed
Note: Starting dynamic gmin stepping
Trying gmin =   1.0000E-03 Note: One successful gmin step
Trying gmin =   1.0000E-04 Note: One successful gmin step
Trying gmin =   1.0000E-05 Warning: Further gmin increment
Trying gmin =   5.6234E-05 Note: One successful gmin step
Trying gmin =   2.3714E-05 Note: One successful gmin step
Trying gmin =   6.4938E-06 Note: One successful gmin step
Trying gmin =   9.3057E-07 Warning: Further gmin increment
Trying gmin =   3.9954E-06 Note: One successful gmin step
Trying gmin =   2.4582E-06 Note: One successful gmin step
Trying gmin =   1.1864E-06 Note: One successful gmin step
Trying gmin =   5.7255E-07 Note: One successful gmin step
Trying gmin =   1.9196E-07 Note: One successful gmin step
Trying gmin =   3.7264E-08 Note: One successful gmin step
Trying gmin =   3.7264E-09 Note: One successful gmin step
Trying gmin =   3.7264E-10 Note: One successful gmin step
Trying gmin =   3.7264E-11 Note: One successful gmin step
Trying gmin =   3.7264E-12 Note: One successful gmin step
Trying gmin =   1.0000E-12 Note: One successful gmin step
Note: Dynamic gmin stepping completed
 Reference value :  2.80000e+00Note: Starting true gmin stepping
Trying gmin =   1.0000E-03 Note: One successful gmin step
Trying gmin =   1.0000E-04 Note: One successful gmin step
Trying gmin =   1.0000E-05 Note: One successful gmin step
Trying gmin =   1.0000E-06 Note: One successful gmin step
Trying gmin =   1.0000E-07 Note: One successful gmin step
Trying gmin =   1.0000E-08 Warning: Further gmin increment
Trying gmin =   5.6234E-08 Note: One successful gmin step
Trying gmin =   2.3714E-08 Note: One successful gmin step
Trying gmin =   6.4938E-09 Note: One successful gmin step
Trying gmin =   9.3057E-10 Warning: Further gmin increment
Trying gmin =   3.9954E-09 Note: One successful gmin step
Trying gmin =   1.9282E-09 Warning: Further gmin increment
Trying gmin =   3.3301E-09 Note: One successful gmin step
Trying gmin =   2.5340E-09 Note: One successful gmin step
Trying gmin =   1.6820E-09 Note: One successful gmin step
Trying gmin =   9.0962E-10 Note: One successful gmin step
Trying gmin =   3.6175E-10 Note: One successful gmin step
Trying gmin =   9.0726E-11 Note: One successful gmin step
Trying gmin =   1.1395E-11 Note: One successful gmin step
Trying gmin =   1.1395E-12 Note: One successful gmin step
Trying gmin =   1.0000E-12 Note: One successful gmin step
Note: True gmin stepping completed
 Reference value :  1.22000e+00Note: Starting true gmin stepping
Trying gmin =   1.0000E-03 Note: One successful gmin step
Trying gmin =   1.0000E-04 Note: One successful gmin step
Trying gmin =   1.0000E-05 Note: One successful gmin step
Trying gmin =   1.0000E-06 Note: One successful gmin step
Trying gmin =   1.0000E-07 Note: One successful gmin step
Trying gmin =   1.0000E-08 Note: One successful gmin step
Trying gmin =   1.0000E-09 Warning: Further gmin increment
Trying gmin =   5.6234E-09 Note: One successful gmin step
Trying gmin =   2.3714E-09 Note: One successful gmin step
Trying gmin =   1.5399E-09 Note: One successful gmin step
Trying gmin =   8.0584E-10 Note: One successful gmin step
Trying gmin =   3.0505E-10 Note: One successful gmin step
Trying gmin =   7.1050E-11 Note: One successful gmin step
Trying gmin =   7.9863E-12 Note: One successful gmin step
Trying gmin =   1.0000E-12 Note: One successful gmin step
Note: True gmin stepping completed
 Reference value :  1.20000e+00pm                  =  1.642579e+01
Doing analysis at TEMP = 27.000000 and TNOM = 27.000000


No. of Data Rows : 91
psrr100             =  -8.651083e+01
psrr100k            =  -2.771458e+01
Doing analysis at TEMP = 27.000000 and TNOM = 27.000000


No. of Data Rows : 86
temp_coeff = 1.530270e+02
Doing analysis at TEMP = 27.000000 and TNOM = 27.000000


No. of Data Rows : 141
vldo_sup_2          =  1.791738e+00
vldo_sup_2_8        =  1.791820e+00
line_reg = 1.025000e-04
Note: No ".plot", ".print", or ".fourier" lines; no simulations run
vin                 =  1.905865e+00
dropout = 1.418650e-01
