Note: Starting true gmin stepping
Trying gmin =   1.0000E-03 Note: One successful gmin step
Trying gmin =   1.0000E-04 Note: One successful gmin step
Trying gmin =   1.0000E-05 Note: One successful gmin step
Trying gmin =   1.0000E-06 Note: One successful gmin step
Trying gmin =   1.0000E-07 Note: One successful gmin step
Trying gmin =   1.0000E-08 Warning: Further gmin increment
Trying gmin =   5.6234E-08 Note: One successful gmin step
Trying gmin =   2.3714E-08 Warning: Further gmin increment
Trying gmin =   4.5316E-08 Note: One successful gmin step
Trying gmin =   3.6517E-08 Note: One successful gmin step
Trying gmin =   2.6416E-08 Note: One successful gmin step
Trying gmin =   1.6253E-08 Note: One successful gmin step
Trying gmin =   7.8439E-09 Note: One successful gmin step
Trying gmin =   2.6298E-09 Note: One successful gmin step
Trying gmin =   5.1051E-10 Note: One successful gmin step
Trying gmin =   5.1051E-11 Note: One successful gmin step
Trying gmin =   5.1051E-12 Note: One successful gmin step
Trying gmin =   1.0000E-12 Note: One successful gmin step
Note: True gmin stepping completed
 Reference value :  0.00000e+00
No compatibility mode selected!


Circuit: * ldo netlist 

Doing analysis at TEMP = 0.000000 and TNOM = 27.000000


No. of Data Rows : 1
bg_out = 5.744481e-01
inn = 7.927405e-01
inp = 7.921959e-01
l1#branch = 0.000000e+00
ldo_out = 9.491274e-01
m.xm1.msky130_fd_pr__nfet_g5v0d10v5#body = 1.260345e-11
m.xm1.msky130_fd_pr__nfet_g5v0d10v5#dbody = 3.068242e-11
m.xm1.msky130_fd_pr__nfet_g5v0d10v5#sbody = 7.127927e-12
m.xm2.msky130_fd_pr__pfet_g5v0d10v5#body = 2.100000e+00
m.xm2.msky130_fd_pr__pfet_g5v0d10v5#dbody = 2.100000e+00
m.xm2.msky130_fd_pr__pfet_g5v0d10v5#sbody = 2.100000e+00
m.xm3.msky130_fd_pr__pfet_g5v0d10v5#body = 2.100000e+00
m.xm3.msky130_fd_pr__pfet_g5v0d10v5#dbody = 2.100000e+00
m.xm3.msky130_fd_pr__pfet_g5v0d10v5#sbody = 2.100000e+00
m.xm4.msky130_fd_pr__pfet_g5v0d10v5#body = 2.100000e+00
m.xm4.msky130_fd_pr__pfet_g5v0d10v5#dbody = 2.100000e+00
m.xm4.msky130_fd_pr__pfet_g5v0d10v5#sbody = 2.100000e+00
m.xm5.msky130_fd_pr__pfet_g5v0d10v5#body = 2.100000e+00
m.xm5.msky130_fd_pr__pfet_g5v0d10v5#dbody = 2.100000e+00
m.xm5.msky130_fd_pr__pfet_g5v0d10v5#sbody = 2.100000e+00
m.xm6.msky130_fd_pr__nfet_g5v0d10v5#body = 1.100281e-11
m.xm6.msky130_fd_pr__nfet_g5v0d10v5#dbody = 2.750701e-11
m.xm6.msky130_fd_pr__nfet_g5v0d10v5#sbody = 5.501405e-12
m.xm7.msky130_fd_pr__pfet_g5v0d10v5#body = 2.100000e+00
m.xm7.msky130_fd_pr__pfet_g5v0d10v5#dbody = 2.100000e+00
m.xm7.msky130_fd_pr__pfet_g5v0d10v5#sbody = 2.100000e+00
m.xm8.msky130_fd_pr__pfet_g5v0d10v5#body = 2.100000e+00
m.xm8.msky130_fd_pr__pfet_g5v0d10v5#dbody = 2.100000e+00
m.xm8.msky130_fd_pr__pfet_g5v0d10v5#sbody = 2.100000e+00
m.xm9.msky130_fd_pr__nfet_g5v0d10v5#body = 1.577287e-11
m.xm9.msky130_fd_pr__nfet_g5v0d10v5#dbody = 3.941212e-11
m.xm9.msky130_fd_pr__nfet_g5v0d10v5#sbody = 7.906473e-12
m.xm10.msky130_fd_pr__nfet_g5v0d10v5#body = 1.286211e-11
m.xm10.msky130_fd_pr__nfet_g5v0d10v5#dbody = 3.213522e-11
m.xm10.msky130_fd_pr__nfet_g5v0d10v5#sbody = 6.451093e-12
m.xm11.msky130_fd_pr__pfet_g5v0d10v5#body = 2.100000e+00
m.xm11.msky130_fd_pr__pfet_g5v0d10v5#dbody = 2.100000e+00
m.xm11.msky130_fd_pr__pfet_g5v0d10v5#sbody = 2.100000e+00
m.xm12.msky130_fd_pr__pfet_g5v0d10v5#body = 2.100000e+00
m.xm12.msky130_fd_pr__pfet_g5v0d10v5#dbody = 2.100000e+00
m.xm12.msky130_fd_pr__pfet_g5v0d10v5#sbody = 2.100000e+00
m.xm13.msky130_fd_pr__nfet_g5v0d10v5#body = 1.001980e-14
m.xm13.msky130_fd_pr__nfet_g5v0d10v5#dbody = 2.504944e-14
m.xm13.msky130_fd_pr__nfet_g5v0d10v5#sbody = 5.009971e-15
m.xm14.msky130_fd_pr__pfet_g5v0d10v5#body = 2.100000e+00
m.xm14.msky130_fd_pr__pfet_g5v0d10v5#dbody = 2.100000e+00
m.xm14.msky130_fd_pr__pfet_g5v0d10v5#sbody = 2.100000e+00
m.xm15.msky130_fd_pr__nfet_g5v0d10v5#body = 1.544029e-11
m.xm15.msky130_fd_pr__nfet_g5v0d10v5#dbody = 3.860070e-11
m.xm15.msky130_fd_pr__nfet_g5v0d10v5#sbody = 7.720144e-12
m.xm16.msky130_fd_pr__nfet_g5v0d10v5#body = 3.615937e-11
m.xm16.msky130_fd_pr__nfet_g5v0d10v5#dbody = 7.057980e-11
m.xm16.msky130_fd_pr__nfet_g5v0d10v5#sbody = 3.789832e-11
m.xm17.msky130_fd_pr__pfet_g5v0d10v5#body = 2.100000e+00
m.xm17.msky130_fd_pr__pfet_g5v0d10v5#dbody = 2.100000e+00
m.xm17.msky130_fd_pr__pfet_g5v0d10v5#sbody = 2.100000e+00
m.xm18.msky130_fd_pr__nfet_g5v0d10v5#body = 1.718960e-11
m.xm18.msky130_fd_pr__nfet_g5v0d10v5#dbody = 4.297207e-11
m.xm18.msky130_fd_pr__nfet_g5v0d10v5#sbody = 8.594807e-12
m.xm19.msky130_fd_pr__nfet_g5v0d10v5#body = 1.341538e-11
m.xm19.msky130_fd_pr__nfet_g5v0d10v5#dbody = 3.271225e-11
m.xm19.msky130_fd_pr__nfet_g5v0d10v5#sbody = 7.533895e-12
m.xm20.msky130_fd_pr__nfet_g5v0d10v5#body = 1.102453e-11
m.xm20.msky130_fd_pr__nfet_g5v0d10v5#dbody = 2.756131e-11
m.xm20.msky130_fd_pr__nfet_g5v0d10v5#sbody = 5.512270e-12
m.xm22.msky130_fd_pr__nfet_g5v0d10v5#body = 4.131281e-13
m.xm22.msky130_fd_pr__nfet_g5v0d10v5#dbody = 1.032819e-12
m.xm22.msky130_fd_pr__nfet_g5v0d10v5#sbody = 2.065652e-13
m.xm24.msky130_fd_pr__pfet_g5v0d10v5#body = 2.100000e+00
m.xm24.msky130_fd_pr__pfet_g5v0d10v5#dbody = 2.100000e+00
m.xm24.msky130_fd_pr__pfet_g5v0d10v5#sbody = 2.100000e+00
m.xm26.msky130_fd_pr__pfet_g5v0d10v5#body = 2.100000e+00
m.xm26.msky130Note: Starting true gmin stepping
Trying gmin =   1.0000E-03 Note: One successful gmin step
Trying gmin =   1.0000E-04 Note: One successful gmin step
Trying gmin =   1.0000E-05 Note: One successful gmin step
Trying gmin =   1.0000E-06 Note: One successful gmin step
Trying gmin =   1.0000E-07 Note: One successful gmin step
Trying gmin =   1.0000E-08 Warning: Further gmin increment
Trying gmin =   5.6234E-08 Note: One successful gmin step
Trying gmin =   2.3714E-08 Warning: Further gmin increment
Trying gmin =   4.5316E-08 Note: One successful gmin step
Trying gmin =   3.6517E-08 Note: One successful gmin step
Trying gmin =   2.6416E-08 Note: One successful gmin step
Trying gmin =   1.6253E-08 Note: One successful gmin step
Trying gmin =   7.8439E-09 Note: One successful gmin step
Trying gmin =   2.6298E-09 Note: One successful gmin step
Trying gmin =   5.1051E-10 Note: One successful gmin step
Trying gmin =   5.1051E-11 Note: One successful gmin step
Trying gmin =   5.1051E-12 Note: One successful gmin step
Trying gmin =   1.0000E-12 Note: One successful gmin step
Note: True gmin stepping completed
_fd_pr__pfet_g5v0d10v5#dbody = 2.100000e+00
m.xm26.msky130_fd_pr__pfet_g5v0d10v5#sbody = 2.100000e+00
mir = 9.752230e-01
net1 = 6.074090e-01
net2 = 1.235207e+00
net3 = 6.080239e-01
net4 = 3.304467e-02
net5 = 1.040178e+00
net6 = 8.802167e-01
net7 = 6.074941e-01
net8 = 1.028164e+00
net9 = 1.261024e+00
net10 = 8.015297e-04
net11 = 1.375089e+00
net12 = 1.375089e+00
net13 = 0.000000e+00
out = 1.375089e+00
pos = 5.774309e-01
q.xq2.qsky130_fd_pr__pnp_05v5_w0p68l0p68#collcx = 3.911966e-07
q.xq3.qsky130_fd_pr__pnp_05v5_w0p68l0p68#collcx = 3.814374e-07
q.xq4.qsky130_fd_pr__pnp_05v5_w0p68l0p68#collcx = 3.814374e-07
q.xq8.qsky130_fd_pr__pnp_05v5_w0p68l0p68#collcx = 3.814374e-07
q.xq10.qsky130_fd_pr__pnp_05v5_w0p68l0p68#collcx = 3.814374e-07
q.xq12.qsky130_fd_pr__pnp_05v5_w0p68l0p68#collcx = 3.814374e-07
q.xq14.qsky130_fd_pr__pnp_05v5_w0p68l0p68#collcx = 3.814374e-07
q.xq16.qsky130_fd_pr__pnp_05v5_w0p68l0p68#collcx = 3.814374e-07
q.xq18.qsky130_fd_pr__pnp_05v5_w0p68l0p68#collcx = 3.814374e-07
vb = 8.819604e-01
vdd = 2.100000e+00
vs#branch = -8.42006e-05
vt#branch = 0.000000e+00
xc1.a = 0.000000e+00
xc1.b1 = 0.000000e+00
xc3.a = 1.375089e+00
xc3.b1 = 1.375089e+00
xr1.xsky130_fd_pr__res_xhigh_po_0p69.ra = 6.089641e-01
xr2.xsky130_fd_pr__res_xhigh_po_0p69.ra = 6.094940e-01
xr3.xsky130_fd_pr__res_xhigh_po_0p69.ra = 1.508231e-03
xr4.xsky130_fd_pr__res_xhigh_po_0p69.ra = 6.074104e-01
xr5.xsky130_fd_pr__res_xhigh_po_0p69.ra = 1.506852e-03
xr6.xsky130_fd_pr__res_xhigh_po_0p69.ra = 1.522056e-03
xr7.xsky130_fd_pr__res_xhigh_po_0p69.ra = 1.375089e+00
xr8.xsky130_fd_pr__res_xhigh_po_0p69.ra = 5.797954e-01
xr9.xsky130_fd_pr__res_xhigh_po_0p69.ra = 2.399190e-03
Doing analysis at TEMP = 0.000000 and TNOM = 27.000000


No. of Data Rows : 91
Note: Starting true gmin stepping
Trying gmin =   1.0000E-03 Note: One successful gmin step
Trying gmin =   1.0000E-04 Note: One successful gmin step
Trying gmin =   1.0000E-05 Note: One successful gmin step
Trying gmin =   1.0000E-06 Note: One successful gmin step
Trying gmin =   1.0000E-07 Note: One successful gmin step
Trying gmin =   1.0000E-08 Warning: Further gmin increment
Trying gmin =   5.6234E-08 Note: One successful gmin step
Trying gmin =   2.3714E-08 Warning: Further gmin increment
Trying gmin =   4.5316E-08 Note: One successful gmin step
Trying gmin =   3.6517E-08 Note: One successful gmin step
Trying gmin =   2.6416E-08 Note: One successful gmin step
Trying gmin =   1.6253E-08 Note: One successful gmin step
Trying gmin =   7.8439E-09 Note: One successful gmin step
Trying gmin =   2.6298E-09 Note: One successful gmin step
Trying gmin =   5.1051E-10 Note: One successful gmin step
Trying gmin =   5.1051E-11 Note: One successful gmin step
Trying gmin =   5.1051E-12 Note: One successful gmin step
Trying gmin =   1.0000E-12 Note: One successful gmin step
Note: True gmin stepping completed
 Reference value :  7.80000e+01Note: Starting true gmin stepping
Trying gmin =   1.0000E-03 Note: One successful gmin step
Trying gmin =   1.0000E-04 Note: One successful gmin step
Trying gmin =   1.0000E-05 Note: One successful gmin step
Trying gmin =   1.0000E-06 Note: One successful gmin step
Trying gmin =   1.0000E-07 Note: One successful gmin step
Trying gmin =   1.0000E-08 Warning: Further gmin increment
Trying gmin =   5.6234E-08 Warning: Further gmin increment
Trying gmin =   8.6596E-08 Note: One successful gmin step
Trying gmin =   6.9783E-08 Warning: Further gmin increment
Trying gmin =   8.2047E-08 Note: One successful gmin step
Trying gmin =   7.5667E-08 Note: One successful gmin step
Trying gmin =   6.7015E-08 Warning: Further gmin increment
Trying gmin =   7.3404E-08 Note: One successful gmin step
Trying gmin =   7.0137E-08 Warning: Further gmin increment
Trying gmin =   7.2574E-08 Warning: Further gmin increment
Trying gmin =   7.3196E-08 Warning: Further gmin increment
Trying gmin =   7.3352E-08 Note: One successful gmin step
Trying gmin =   7.3274E-08 Warning: Further gmin increment
Trying gmin =   7.3333E-08 Note: One successful gmin step
Trying gmin =   7.3303E-08 Note: One successful gmin step
Trying gmin =   7.3259E-08 Warning: Further gmin increment
Trying gmin =   7.3292E-08 Note: One successful gmin step
Trying gmin =   7.3276E-08 Warning: Further gmin increment
Trying gmin =   7.3288E-08 Note: One successful gmin step
Trying gmin =   7.3282E-08 Warning: Further gmin increment
Trying gmin =   7.3287E-08 Note: One successful gmin step
Trying gmin =   7.3284E-08 Note: One successful gmin step
Trying gmin =   7.3281E-08 Warning: Last gmin step failed
Warning: True gmin stepping failed
Note: Starting dynamic gmin stepping
Trying gmin =   1.0000E-03 Note: One successful gmin step
Trying gmin =   1.0000E-04 Note: One successful gmin step
Trying gmin =   1.0000E-05 Note: One successful gmin step
Trying gmin =   1.0000E-06 Warning: Further gmin increment
Trying gmin =   5.6234E-06 Note: One successful gmin step
Trying gmin =   3.1623E-06 Note: One successful gmin step
Trying gmin =   1.3335E-06 Note: One successful gmin step
Trying gmin =   5.6234E-07 Note: One successful gmin step
Trying gmin =   1.5399E-07 Note: One successful gmin step
Trying gmin =   2.2067E-08 Note: One successful gmin step
Trying gmin =   2.2067E-09 Note: One successful gmin step
Trying gmin =   2.2067E-10 Note: One successful gmin step
Trying gmin =   2.2067E-11 Note: One successful gmin step
Trying gmin =   2.2067E-12 Note: One successful gmin step
Trying gmin =   1.0000E-12 Note: One successful gmin step
Note: Dynamic gmin stepping completed
 Reference value :  2.80000e+00Note: Starting true gmin stepping
Trying gmin =   1.0000E-03 Note: One successful gmin step
Trying gmin =   1.0000E-04 Note: One successful gmin step
Trying gmin =   1.0000E-05 Note: One successful gmin step
Trying gmin =   1.0000E-06 Note: One successful gmin step
Trying gmin =   1.0000E-07 Note: One successful gmin step
Trying gmin =   1.0000E-08 Note: One successful gmin step
Trying gmin =   1.0000E-09 Warning: Further gmin increment
Trying gmin =   5.6234E-09 Note: One successful gmin step
Trying gmin =   2.3714E-09 Note: One successful gmin step
Trying gmin =   6.4938E-10 Note: One successful gmin step
Trying gmin =   9.3057E-11 Note: One successful gmin step
Trying gmin =   9.3057E-12 Note: One successful gmin step
Trying gmin =   1.0000E-12 Note: One successful gmin step
Note: True gmin stepping completed
Note: Starting true gmin stepping
Trying gmin =   1.0000E-03 Note: One successful gmin step
Trying gmin =   1.0000E-04 Note: One successful gmin step
Trying gmin =   1.0000E-05 Note: One successful gmin step
Trying gmin =   1.0000E-06 Note: One successful gmin step
Trying gmin =   1.0000E-07 Note: One successful gmin step
Trying gmin =   1.0000E-08 Warning: Further gmin increment
Trying gmin =   5.6234E-08 Note: One successful gmin step
Trying gmin =   2.3714E-08 Note: One successful gmin step
Trying gmin =   1.0000E-08 Note: One successful gmin step
Trying gmin =   2.7384E-09 Note: One successful gmin step
Trying gmin =   3.9242E-10 Warning: Further gmin increment
Trying gmin =   1.6849E-09 Warning: Further gmin increment
Trying gmin =   2.4253E-09 Note: One successful gmin step
Trying gmin =   2.0215E-09 Note: One successful gmin step
Trying gmin =   1.5382E-09 Warning: Further gmin increment
Trying gmin =   1.8880E-09 Warning: Further gmin increment
Trying gmin =   1.9872E-09 Note: One successful gmin step
Trying gmin =   1.9370E-09 Note: One successful gmin step
Trying gmin =   1.8640E-09 Warning: Further gmin increment
Trying gmin =   1.9185E-09 Note: One successful gmin step
Trying gmin =   1.8910E-09 Warning: Further gmin increment
Trying gmin =   1.9116E-09 Warning: Further gmin increment
Trying gmin =   1.9167E-09 Note: One successful gmin step
Trying gmin =   1.9141E-09 Warning: Further gmin increment
Trying gmin =   1.9161E-09 Note: One successful gmin step
Trying gmin =   1.9151E-09 Note: One successful gmin step
Trying gmin =   1.9137E-09 Warning: Further gmin increment
Trying gmin =   1.9148E-09 Note: One successful gmin step
Trying gmin =   1.9142E-09 Note: One successful gmin step
Trying gmin =   1.9137E-09 Note: One successful gmin step
Trying gmin =   1.9128E-09 Note: One successful gmin step
Trying gmin =   1.9116E-09 Note: One successful gmin step
Trying gmin =   1.9098E-09 Note: One successful gmin step
Trying gmin =   1.9070E-09 Note: One successful gmin step
Trying gmin =   1.9029E-09 Note: One successful gmin step
Trying gmin =   1.8967E-09 Note: One successful gmin step
Trying gmin =   1.8875E-09 Note: One successful gmin step
Trying gmin =   1.8738E-09 Note: One successful gmin step
Trying gmin =   1.8534E-09 Note: One successful gmin step
Trying gmin =   1.8232E-09 Note: One successful gmin step
Trying gmin =   1.7788E-09 Note: One successful gmin step
Trying gmin =   1.7142E-09 Note: One successful gmin step
Trying gmin =   1.6218E-09 Note: One successful gmin step
Trying gmin =   1.4923E-09 Note: One successful gmin step
Trying gmin =   1.3173E-09 Note: One successful gmin step
Trying gmin =   1.0925E-09 Note: One successful gmin step
Trying gmin =   8.2509E-10 Note: One successful gmin step
Trying gmin =   5.4154E-10 Note: One successful gmin step
Trying gmin =   2.8796E-10 Note: One successful gmin step
Trying gmin =   1.1165E-10 Note: One successful gmin step
Trying gmin =   2.6959E-11 Note: One successful gmin step
Trying gmin =   3.1984E-12 Note: One successful gmin step
Trying gmin =   1.0000E-12 Note: One successful gmin step
Note: True gmin stepping completed
 Reference value :  1.28000e+00pm                  =  6.647921e+01
Doing analysis at TEMP = 0.000000 and TNOM = 27.000000


No. of Data Rows : 91
psrr100             =  -9.130192e+00
psrr100k            =  -1.270036e+00
Doing analysis at TEMP = 0.000000 and TNOM = 27.000000


No. of Data Rows : 86
temp_coeff = 4.591380e+01
Doing analysis at TEMP = 0.000000 and TNOM = 27.000000


No. of Data Rows : 141
vldo_sup_2          =  1.801190e+00
vldo_sup_2_8        =  1.800082e+00
line_reg = 1.385000e-03
Note: No ".plot", ".print", or ".fourier" lines; no simulations run
vin                 =  1.764098e+00
dropout = 9.800000e-05
