 Reference value :  0.00000e+00
No compatibility mode selected!


Circuit: * ldo netlist 

Doing analysis at TEMP = 27.000000 and TNOM = 27.000000


No. of Data Rows : 1
bg_out = 1.100136e+00
inn = 1.147756e+00
inp = 1.147651e+00
l1#branch = 0.000000e+00
ldo_out = 1.808194e+00
m.xm1.msky130_fd_pr__nfet_g5v0d10v5#body = 1.253058e-11
m.xm1.msky130_fd_pr__nfet_g5v0d10v5#dbody = 2.641119e-11
m.xm1.msky130_fd_pr__nfet_g5v0d10v5#sbody = 1.118056e-11
m.xm2.msky130_fd_pr__pfet_g5v0d10v5#body = 2.100000e+00
m.xm2.msky130_fd_pr__pfet_g5v0d10v5#dbody = 2.100000e+00
m.xm2.msky130_fd_pr__pfet_g5v0d10v5#sbody = 2.100000e+00
m.xm3.msky130_fd_pr__pfet_g5v0d10v5#body = 2.100000e+00
m.xm3.msky130_fd_pr__pfet_g5v0d10v5#dbody = 2.100000e+00
m.xm3.msky130_fd_pr__pfet_g5v0d10v5#sbody = 2.100000e+00
m.xm4.msky130_fd_pr__pfet_g5v0d10v5#body = 2.100000e+00
m.xm4.msky130_fd_pr__pfet_g5v0d10v5#dbody = 2.100000e+00
m.xm4.msky130_fd_pr__pfet_g5v0d10v5#sbody = 2.100000e+00
m.xm5.msky130_fd_pr__pfet_g5v0d10v5#body = 2.100000e+00
m.xm5.msky130_fd_pr__pfet_g5v0d10v5#dbody = 2.100000e+00
m.xm5.msky130_fd_pr__pfet_g5v0d10v5#sbody = 2.100000e+00
m.xm6.msky130_fd_pr__nfet_g5v0d10v5#body = 1.226623e-11
m.xm6.msky130_fd_pr__nfet_g5v0d10v5#dbody = 3.066556e-11
m.xm6.msky130_fd_pr__nfet_g5v0d10v5#sbody = 6.133119e-12
m.xm7.msky130_fd_pr__pfet_g5v0d10v5#body = 2.100000e+00
m.xm7.msky130_fd_pr__pfet_g5v0d10v5#dbody = 2.100000e+00
m.xm7.msky130_fd_pr__pfet_g5v0d10v5#sbody = 2.100000e+00
m.xm8.msky130_fd_pr__pfet_g5v0d10v5#body = 2.100000e+00
m.xm8.msky130_fd_pr__pfet_g5v0d10v5#dbody = 2.100000e+00
m.xm8.msky130_fd_pr__pfet_g5v0d10v5#sbody = 2.100000e+00
m.xm9.msky130_fd_pr__nfet_g5v0d10v5#body = 1.329097e-11
m.xm9.msky130_fd_pr__nfet_g5v0d10v5#dbody = 2.946788e-11
m.xm9.msky130_fd_pr__nfet_g5v0d10v5#sbody = 1.040505e-11
m.xm10.msky130_fd_pr__nfet_g5v0d10v5#body = 1.314718e-11
m.xm10.msky130_fd_pr__nfet_g5v0d10v5#dbody = 2.910838e-11
m.xm10.msky130_fd_pr__nfet_g5v0d10v5#sbody = 1.033315e-11
m.xm11.msky130_fd_pr__pfet_g5v0d10v5#body = 2.100000e+00
m.xm11.msky130_fd_pr__pfet_g5v0d10v5#dbody = 2.100000e+00
m.xm11.msky130_fd_pr__pfet_g5v0d10v5#sbody = 2.100000e+00
m.xm12.msky130_fd_pr__pfet_g5v0d10v5#body = 2.100000e+00
m.xm12.msky130_fd_pr__pfet_g5v0d10v5#dbody = 2.100000e+00
m.xm12.msky130_fd_pr__pfet_g5v0d10v5#sbody = 2.100000e+00
m.xm13.msky130_fd_pr__nfet_g5v0d10v5#body = 1.878428e-12
m.xm13.msky130_fd_pr__nfet_g5v0d10v5#dbody = 4.696060e-12
m.xm13.msky130_fd_pr__nfet_g5v0d10v5#sbody = 9.392235e-13
m.xm14.msky130_fd_pr__pfet_g5v0d10v5#body = 2.100000e+00
m.xm14.msky130_fd_pr__pfet_g5v0d10v5#dbody = 2.100000e+00
m.xm14.msky130_fd_pr__pfet_g5v0d10v5#sbody = 2.100000e+00
m.xm15.msky130_fd_pr__nfet_g5v0d10v5#body = 4.707344e-17
m.xm15.msky130_fd_pr__nfet_g5v0d10v5#dbody = 1.176821e-16
m.xm15.msky130_fd_pr__nfet_g5v0d10v5#sbody = 2.353818e-17
m.xm16.msky130_fd_pr__nfet_g5v0d10v5#body = 4.060568e-11
m.xm16.msky130_fd_pr__nfet_g5v0d10v5#dbody = 7.281158e-11
m.xm16.msky130_fd_pr__nfet_g5v0d10v5#sbody = 4.900547e-11
m.xm17.msky130_fd_pr__pfet_g5v0d10v5#body = 2.100000e+00
m.xm17.msky130_fd_pr__pfet_g5v0d10v5#dbody = 2.100000e+00
m.xm17.msky130_fd_pr__pfet_g5v0d10v5#sbody = 2.100000e+00
m.xm18.msky130_fd_pr__nfet_g5v0d10v5#body = 4.163720e-12
m.xm18.msky130_fd_pr__nfet_g5v0d10v5#dbody = 1.040929e-11
m.xm18.msky130_fd_pr__nfet_g5v0d10v5#sbody = 2.081871e-12
m.xm19.msky130_fd_pr__nfet_g5v0d10v5#body = 1.266460e-11
m.xm19.msky130_fd_pr__nfet_g5v0d10v5#dbody = 2.674624e-11
m.xm19.msky130_fd_pr__nfet_g5v0d10v5#sbody = 1.124757e-11
m.xm20.msky130_fd_pr__nfet_g5v0d10v5#body = 1.284188e-11
m.xm20.msky130_fd_pr__nfet_g5v0d10v5#dbody = 3.210467e-11
m.xm20.msky130_fd_pr__nfet_g5v0d10v5#sbody = 6.420950e-12
m.xm22.msky130_fd_pr__nfet_g5v0d10v5#body = 2.460346e-12
m.xm22.msky130_fd_pr__nfet_g5v0d10v5#dbody = 6.150860e-12
m.xm22.msky130_fd_pr__nfet_g5v0d10v5#sbody = 1.230178e-12
m.xm24.msky130_fd_pr__pfet_g5v0d10v5#body = 2.100000e+00
m.xm24.msky130_fd_pr__pfet_g5v0d10v5#dbody = 2.100000e+00
m.xm24.msky130_fd_pr__pfet_g5v0d10v5#sbody = 2.100000e+00
m.xm26.msky130_fd_pr__pfet_g5v0d10v5#body = 2.100000e+00
m.xm26.msky130_fd_pr__pfet_g5v0d10v5#dbody = 2.100000e+00
m.xm26.msky130_fd_pr__pfet_g5v0d10v5#sbody = 2.100000e+00
mir = 8.054865e-01
net1 = 7.316918e-01
net2 = 3.621706e-06
net3 = 7.910710e-01
net4 = 1.962617e-01
net5 = 8.162082e-01
net6 = 9.807317e-01
net7 = 7.909640e-01
net8 = 9.011511e-01
net9 = 9.126548e-01
net10 = 1.501426e-01
net11 = 3.329653e-01
net12 = 3.329653e-01
net13 = 0.000000e+00
out = 3.329653e-01
pos = 1.100261e+00
q.xq2.qsky130_fd_pr__pnp_05v5_w0p68l0p68#collcx = 2.030218e-03
q.xq3.qsky130_fd_pr__pnp_05v5_w0p68l0p68#collcx = 2.574607e-04
q.xq4.qsky130_fd_pr__pnp_05v5_w0p68l0p68#collcx = 2.574607e-04
q.xq8.qsky130_fd_pr__pnp_05v5_w0p68l0p68#collcx = 2.574607e-04
q.xq10.qsky130_fd_pr__pnp_05v5_w0p68l0p68#collcx = 2.574607e-04
q.xq12.qsky130_fd_pr__pnp_05v5_w0p68l0p68#collcx = 2.574607e-04
q.xq14.qsky130_fd_pr__pnp_05v5_w0p68l0p68#collcx = 2.574607e-04
q.xq16.qsky130_fd_pr__pnp_05v5_w0p68l0p68#collcx = 2.574607e-04
q.xq18.qsky130_fd_pr__pnp_05v5_w0p68l0p68#collcx = 2.574607e-04
vb = 1.027218e+00
vdd = 2.100000e+00
vs#branch = -1.00579e-01
vt#branch = 0.000000e+00
xc1.a = 0.000000e+00
xc1.b1 = 0.000000e+00
xc3.a = 3.329653e-01
xc3.b1 = 3.329653e-01
xr1.xsky130_fd_pr__res_xhigh_po_0p69.ra = 7.964468e-01
xr2.xsky130_fd_pr__res_xhigh_po_0p69.ra = 7.965537e-01
xr3.xsky130_fd_pr__res_xhigh_po_0p69.ra = 3.811742e-03
xr4.xsky130_fd_pr__res_xhigh_po_0p69.ra = 7.334691e-01
xr5.xsky130_fd_pr__res_xhigh_po_0p69.ra = 3.811192e-03
xr6.xsky130_fd_pr__res_xhigh_po_0p69.ra = 5.822427e-03
xr7.xsky130_fd_pr__res_xhigh_po_0p69.ra = 3.329653e-01
xr8.xsky130_fd_pr__res_xhigh_po_0p69.ra = 1.109107e+00
xr9.xsky130_fd_pr__res_xhigh_po_0p69.ra = 9.132310e-03
Doing analysis at TEMP = 27.000000 and TNOM = 27.000000


No. of Data Rows : 91
Error: no such vector PM
Note: Starting true gmin stepping
Trying gmin =   1.0000E-03 Note: One successful gmin step
Trying gmin =   1.0000E-04 Note: One successful gmin step
Trying gmin =   1.0000E-05 Note: One successful gmin step
Trying gmin =   1.0000E-06 Note: One successful gmin step
Trying gmin =   1.0000E-07 Note: One successful gmin step
Trying gmin =   1.0000E-08 Note: One successful gmin step
Trying gmin =   1.0000E-09 Note: One successful gmin step
Trying gmin =   1.0000E-10 Warning: Further gmin increment
Trying gmin =   5.6234E-10 Note: One successful gmin step
Trying gmin =   3.1623E-10 Note: One successful gmin step
Trying gmin =   1.3335E-10 Warning: Further gmin increment
Trying gmin =   2.5483E-10 Note: One successful gmin step
Trying gmin =   2.0535E-10 Note: One successful gmin step
Trying gmin =   1.4855E-10 Note: One successful gmin step
Trying gmin =   9.1398E-11 Note: One successful gmin step
Trying gmin =   4.4109E-11 Note: One successful gmin step
Trying gmin =   1.4788E-11 Note: One successful gmin step
Trying gmin =   2.8708E-12 Note: One successful gmin step
Trying gmin =   1.0000E-12 Note: One successful gmin step
Note: True gmin stepping completed
 Reference value :  1.32000e+00Note: Starting true gmin stepping
Trying gmin =   1.0000E-03 Note: One successful gmin step
Trying gmin =   1.0000E-04 Note: One successful gmin step
Trying gmin =   1.0000E-05 Note: One successful gmin step
Trying gmin =   1.0000E-06 Note: One successful gmin step
Trying gmin =   1.0000E-07 Note: One successful gmin step
Trying gmin =   1.0000E-08 Note: One successful gmin step
Trying gmin =   1.0000E-09 Note: One successful gmin step
Trying gmin =   1.0000E-10 Warning: Further gmin increment
Trying gmin =   5.6234E-10 Note: One successful gmin step
Trying gmin =   3.1623E-10 Note: One successful gmin step
Trying gmin =   1.3335E-10 Note: One successful gmin step
Trying gmin =   8.6596E-11 Note: One successful gmin step
Trying gmin =   4.5316E-11 Note: One successful gmin step
Trying gmin =   1.7154E-11 Note: One successful gmin step
Trying gmin =   3.9954E-12 Note: One successful gmin step
Trying gmin =   1.0000E-12 Note: One successful gmin step
Note: True gmin stepping completed

Error: measure  pm  (AT) : out of interval
 meas ac pm find p when vdb(ldo_out)=0 failed!

Doing analysis at TEMP = 27.000000 and TNOM = 27.000000


No. of Data Rows : 91
psrr100             =  -5.351486e+01
psrr100k            =  -1.682102e+01
Doing analysis at TEMP = 27.000000 and TNOM = 27.000000


No. of Data Rows : 86
temp_coeff = 3.516234e+01
Doing analysis at TEMP = 27.000000 and TNOM = 27.000000


No. of Data Rows : 141
vldo_sup_2          =  1.798960e+00
vldo_sup_2_8        =  1.808649e+00
line_reg = 1.211125e-02
Note: No ".plot", ".print", or ".fourier" lines; no simulations run
vin                 =  1.968087e+00
dropout = 2.040870e-01
