 Reference value :  0.00000e+00
No compatibility mode selected!


Circuit: * ldo netlist 

Doing analysis at TEMP = 27.000000 and TNOM = 27.000000


No. of Data Rows : 1
bg_out = 1.095757e+00
inn = 1.139395e+00
inp = 1.139308e+00
l1#branch = -8.67362e-19
ldo_out = 1.800651e+00
m.xm1.msky130_fd_pr__nfet_g5v0d10v5#body = 1.442528e-11
m.xm1.msky130_fd_pr__nfet_g5v0d10v5#dbody = 3.156405e-11
m.xm1.msky130_fd_pr__nfet_g5v0d10v5#sbody = 1.171180e-11
m.xm2.msky130_fd_pr__pfet_g5v0d10v5#body = 2.100000e+00
m.xm2.msky130_fd_pr__pfet_g5v0d10v5#dbody = 2.100000e+00
m.xm2.msky130_fd_pr__pfet_g5v0d10v5#sbody = 2.100000e+00
m.xm3.msky130_fd_pr__pfet_g5v0d10v5#body = 2.100000e+00
m.xm3.msky130_fd_pr__pfet_g5v0d10v5#dbody = 2.100000e+00
m.xm3.msky130_fd_pr__pfet_g5v0d10v5#sbody = 2.100000e+00
m.xm4.msky130_fd_pr__pfet_g5v0d10v5#body = 2.100000e+00
m.xm4.msky130_fd_pr__pfet_g5v0d10v5#dbody = 2.100000e+00
m.xm4.msky130_fd_pr__pfet_g5v0d10v5#sbody = 2.100000e+00
m.xm5.msky130_fd_pr__pfet_g5v0d10v5#body = 2.100000e+00
m.xm5.msky130_fd_pr__pfet_g5v0d10v5#dbody = 2.100000e+00
m.xm5.msky130_fd_pr__pfet_g5v0d10v5#sbody = 2.100000e+00
m.xm6.msky130_fd_pr__nfet_g5v0d10v5#body = 1.239314e-11
m.xm6.msky130_fd_pr__nfet_g5v0d10v5#dbody = 3.098284e-11
m.xm6.msky130_fd_pr__nfet_g5v0d10v5#sbody = 6.196575e-12
m.xm7.msky130_fd_pr__pfet_g5v0d10v5#body = 2.100000e+00
m.xm7.msky130_fd_pr__pfet_g5v0d10v5#dbody = 2.100000e+00
m.xm7.msky130_fd_pr__pfet_g5v0d10v5#sbody = 2.100000e+00
m.xm8.msky130_fd_pr__pfet_g5v0d10v5#body = 2.100000e+00
m.xm8.msky130_fd_pr__pfet_g5v0d10v5#dbody = 2.100000e+00
m.xm8.msky130_fd_pr__pfet_g5v0d10v5#sbody = 2.100000e+00
m.xm9.msky130_fd_pr__nfet_g5v0d10v5#body = 1.516770e-11
m.xm9.msky130_fd_pr__nfet_g5v0d10v5#dbody = 3.449133e-11
m.xm9.msky130_fd_pr__nfet_g5v0d10v5#sbody = 1.101176e-11
m.xm10.msky130_fd_pr__nfet_g5v0d10v5#body = 1.493192e-11
m.xm10.msky130_fd_pr__nfet_g5v0d10v5#dbody = 3.390190e-11
m.xm10.msky130_fd_pr__nfet_g5v0d10v5#sbody = 1.089387e-11
m.xm11.msky130_fd_pr__pfet_g5v0d10v5#body = 2.100000e+00
m.xm11.msky130_fd_pr__pfet_g5v0d10v5#dbody = 2.100000e+00
m.xm11.msky130_fd_pr__pfet_g5v0d10v5#sbody = 2.100000e+00
m.xm12.msky130_fd_pr__pfet_g5v0d10v5#body = 2.100000e+00
m.xm12.msky130_fd_pr__pfet_g5v0d10v5#dbody = 2.100000e+00
m.xm12.msky130_fd_pr__pfet_g5v0d10v5#sbody = 2.100000e+00
m.xm13.msky130_fd_pr__nfet_g5v0d10v5#body = 1.712608e-12
m.xm13.msky130_fd_pr__nfet_g5v0d10v5#dbody = 4.281510e-12
m.xm13.msky130_fd_pr__nfet_g5v0d10v5#sbody = 8.563127e-13
m.xm14.msky130_fd_pr__pfet_g5v0d10v5#body = 2.100000e+00
m.xm14.msky130_fd_pr__pfet_g5v0d10v5#dbody = 2.100000e+00
m.xm14.msky130_fd_pr__pfet_g5v0d10v5#sbody = 2.100000e+00
m.xm15.msky130_fd_pr__nfet_g5v0d10v5#body = 4.263353e-16
m.xm15.msky130_fd_pr__nfet_g5v0d10v5#dbody = 1.065828e-15
m.xm15.msky130_fd_pr__nfet_g5v0d10v5#sbody = 2.131781e-16
m.xm16.msky130_fd_pr__nfet_g5v0d10v5#body = 4.050120e-11
m.xm16.msky130_fd_pr__nfet_g5v0d10v5#dbody = 7.275935e-11
m.xm16.msky130_fd_pr__nfet_g5v0d10v5#sbody = 4.874424e-11
m.xm17.msky130_fd_pr__pfet_g5v0d10v5#body = 2.100000e+00
m.xm17.msky130_fd_pr__pfet_g5v0d10v5#dbody = 2.100000e+00
m.xm17.msky130_fd_pr__pfet_g5v0d10v5#sbody = 2.100000e+00
m.xm18.msky130_fd_pr__nfet_g5v0d10v5#body = 8.211746e-12
m.xm18.msky130_fd_pr__nfet_g5v0d10v5#dbody = 2.052935e-11
m.xm18.msky130_fd_pr__nfet_g5v0d10v5#sbody = 4.105884e-12
m.xm19.msky130_fd_pr__nfet_g5v0d10v5#body = 1.455367e-11
m.xm19.msky130_fd_pr__nfet_g5v0d10v5#dbody = 3.188502e-11
m.xm19.msky130_fd_pr__nfet_g5v0d10v5#sbody = 1.177599e-11
m.xm20.msky130_fd_pr__nfet_g5v0d10v5#body = 1.302143e-11
m.xm20.msky130_fd_pr__nfet_g5v0d10v5#dbody = 3.255356e-11
m.xm20.msky130_fd_pr__nfet_g5v0d10v5#sbody = 6.510727e-12
m.xm22.msky130_fd_pr__nfet_g5v0d10v5#body = 2.252287e-12
m.xm22.msky130_fd_pr__nfet_g5v0d10v5#dbody = 5.630714e-12
m.xm22.msky130_fd_pr__nfet_g5v0d10v5#sbody = 1.126148e-12
m.xm24.msky130_fd_pr__pfet_g5v0d10v5#body = 2.100000e+00
m.xm24.msky130_fd_pr__pfet_g5v0d10v5#dbody = 2.100000e+00
m.xm24.msky130_fd_pr__pfet_g5v0d10v5#sbody = 2.100000e+00
m.xm26.msky130_fd_pr__pfet_g5v0d10v5#body = 2.100000e+00
m.xm26.msky130_fd_pr__pfet_g5v0d10v5#dbody = 2.100000e+00
m.xm26.msky130_fd_pr__pfet_g5v0d10v5#sbody = 2.100000e+00
mir = 9.737063e-01
net1 = 7.250974e-01
net2 = 3.280094e-05
net3 = 7.846370e-01
net4 = 1.796167e-01
net5 = 9.839772e-01
net6 = 9.908839e-01
net7 = 7.845480e-01
net8 = 1.057196e+00
net9 = 1.076058e+00
net10 = 1.368766e-01
net11 = 6.568066e-01
net12 = 6.568066e-01
net13 = 0.000000e+00
out = 6.568066e-01
pos = 1.095949e+00
q.xq2.qsky130_fd_pr__pnp_05v5_w0p68l0p68#collcx = 2.091056e-03
q.xq3.qsky130_fd_pr__pnp_05v5_w0p68l0p68#collcx = 2.633593e-04
q.xq4.qsky130_fd_pr__pnp_05v5_w0p68l0p68#collcx = 2.633593e-04
q.xq8.qsky130_fd_pr__pnp_05v5_w0p68l0p68#collcx = 2.633593e-04
q.xq10.qsky130_fd_pr__pnp_05v5_w0p68l0p68#collcx = 2.633593e-04
q.xq12.qsky130_fd_pr__pnp_05v5_w0p68l0p68#collcx = 2.633593e-04
q.xq14.qsky130_fd_pr__pnp_05v5_w0p68l0p68#collcx = 2.633593e-04
q.xq16.qsky130_fd_pr__pnp_05v5_w0p68l0p68#collcx = 2.633593e-04
q.xq18.qsky130_fd_pr__pnp_05v5_w0p68l0p68#collcx = 2.633593e-04
vb = 1.041581e+00
vdd = 2.100000e+00
vs#branch = -1.00155e-01
vt#branch = 0.000000e+00
xc1.a = 0.000000e+00
xc1.b1 = 0.000000e+00
xc3.a = 6.568066e-01
xc3.b1 = 6.568066e-01
xr1.xsky130_fd_pr__res_xhigh_po_0p69.ra = 7.922982e-01
xr2.xsky130_fd_pr__res_xhigh_po_0p69.ra = 7.923871e-01
xr3.xsky130_fd_pr__res_xhigh_po_0p69.ra = 5.362874e-03
xr4.xsky130_fd_pr__res_xhigh_po_0p69.ra = 7.276317e-01
xr5.xsky130_fd_pr__res_xhigh_po_0p69.ra = 5.362226e-03
xr6.xsky130_fd_pr__res_xhigh_po_0p69.ra = 8.227704e-03
xr7.xsky130_fd_pr__res_xhigh_po_0p69.ra = 6.568066e-01
xr8.xsky130_fd_pr__res_xhigh_po_0p69.ra = 1.108456e+00
xr9.xsky130_fd_pr__res_xhigh_po_0p69.ra = 1.291120e-02
Doing analysis at TEMP = 27.000000 and TNOM = 27.000000


No. of Data Rows : 91
Error: no such vector PM
Note: Starting true gmin stepping
Trying gmin =   1.0000E-03 Note: One successful gmin step
Trying gmin =   1.0000E-04 Note: One successful gmin step
Trying gmin =   1.0000E-05 Note: One successful gmin step
Trying gmin =   1.0000E-06 Warning: Further gmin increment
Trying gmin =   5.6234E-06 Note: One successful gmin step
Trying gmin =   2.3714E-06 Note: One successful gmin step
Trying gmin =   6.4938E-07 Warning: Further gmin increment
Trying gmin =   1.7154E-06 Note: One successful gmin step
Trying gmin =   1.0554E-06 Note: One successful gmin step
Trying gmin =   5.0937E-07 Note: One successful gmin step
Trying gmin =   2.4582E-07 Warning: Further gmin increment
Trying gmin =   4.2455E-07 Note: One successful gmin step
Trying gmin =   3.2306E-07 Note: One successful gmin step
Trying gmin =   2.1444E-07 Note: One successful gmin step
Trying gmin =   1.1597E-07 Note: One successful gmin step
Trying gmin =   4.6119E-08 Note: One successful gmin step
Trying gmin =   1.1566E-08 Note: One successful gmin step
Trying gmin =   1.4527E-09 Note: One successful gmin step
Trying gmin =   1.4527E-10 Note: One successful gmin step
Trying gmin =   1.4527E-11 Note: One successful gmin step
Trying gmin =   1.4527E-12 Note: One successful gmin step
Trying gmin =   1.0000E-12 Note: One successful gmin step
Note: True gmin stepping completed
 Reference value :  2.80000e+00Note: Starting true gmin stepping
Trying gmin =   1.0000E-03 Note: One successful gmin step
Trying gmin =   1.0000E-04 Note: One successful gmin step
Trying gmin =   1.0000E-05 Note: One successful gmin step
Trying gmin =   1.0000E-06 Note: One successful gmin step
Trying gmin =   1.0000E-07 Note: One successful gmin step
Trying gmin =   1.0000E-08 Note: One successful gmin step
Trying gmin =   3.1623E-09 Note: One successful gmin step
Trying gmin =   5.6234E-10 Note: One successful gmin step
Trying gmin =   5.6234E-11 Note: One successful gmin step
Trying gmin =   1.7783E-11 Note: One successful gmin step
Trying gmin =   3.1623E-12 Warning: Further gmin increment
Trying gmin =   1.1548E-11 Warning: Further gmin increment
Trying gmin =   1.5963E-11 Note: One successful gmin step
Trying gmin =   1.3577E-11 Note: One successful gmin step
Trying gmin =   1.0650E-11 Note: One successful gmin step
Trying gmin =   8.3536E-12 Note: One successful gmin step
Trying gmin =   5.8033E-12 Note: One successful gmin step
Trying gmin =   3.3602E-12 Note: One successful gmin step
Trying gmin =   1.4805E-12 Note: One successful gmin step
Trying gmin =   1.0000E-12 Note: One successful gmin step
Note: True gmin stepping completed
Note: Starting true gmin stepping
Trying gmin =   1.0000E-03 Note: One successful gmin step
Trying gmin =   1.0000E-04 Note: One successful gmin step
Trying gmin =   1.0000E-05 Note: One successful gmin step
Trying gmin =   1.0000E-06 Note: One successful gmin step
Trying gmin =   1.0000E-07 Note: One successful gmin step
Trying gmin =   1.0000E-08 Note: One successful gmin step
Trying gmin =   1.0000E-09 Note: One successful gmin step
Trying gmin =   1.0000E-10 Note: One successful gmin step
Trying gmin =   1.0000E-11 Warning: Further gmin increment
Trying gmin =   5.6234E-11 Note: One successful gmin step
Trying gmin =   3.1623E-11 Note: One successful gmin step
Trying gmin =   1.3335E-11 Note: One successful gmin step
Trying gmin =   3.6517E-12 Warning: Further gmin increment
Trying gmin =   9.6466E-12 Warning: Further gmin increment
Trying gmin =   1.2298E-11 Note: One successful gmin step
Trying gmin =   1.0892E-11 Note: One successful gmin step
Trying gmin =   9.0784E-12 Note: One successful gmin step
Trying gmin =   6.9080E-12 Note: One successful gmin step
Trying gmin =   4.5854E-12 Note: One successful gmin step
Trying gmin =   2.4798E-12 Note: One successful gmin step
Trying gmin =   1.0000E-12 Note: One successful gmin step
Note: True gmin stepping completed
 Reference value :  1.12000e+00
Error: measure  pm  (AT) : out of interval
 meas ac pm find p when vdb(ldo_out)=0 failed!

Doing analysis at TEMP = 27.000000 and TNOM = 27.000000


No. of Data Rows : 91
psrr100             =  -7.147861e+01
psrr100k            =  -1.825906e+01
Doing analysis at TEMP = 27.000000 and TNOM = 27.000000


No. of Data Rows : 86
temp_coeff = 4.302039e+01
Doing analysis at TEMP = 27.000000 and TNOM = 27.000000


No. of Data Rows : 141
vldo_sup_2          =  1.800580e+00
vldo_sup_2_8        =  1.800648e+00
line_reg = 8.500000e-05
Note: No ".plot", ".print", or ".fourier" lines; no simulations run
vin                 =  1.901639e+00
dropout = 1.376390e-01
