 Reference value :  0.00000e+00
No compatibility mode selected!


Circuit: * ldo netlist 

Doing analysis at TEMP = 0.000000 and TNOM = 27.000000


No. of Data Rows : 1
bg_out = 6.072064e-01
inn = 8.208560e-01
inp = 8.205407e-01
l1#branch = 0.000000e+00
ldo_out = 9.161706e-01
m.xm1.msky130_fd_pr__nfet_g5v0d10v5#body = 1.113982e-11
m.xm1.msky130_fd_pr__nfet_g5v0d10v5#dbody = 2.643088e-11
m.xm1.msky130_fd_pr__nfet_g5v0d10v5#sbody = 6.988586e-12
m.xm2.msky130_fd_pr__pfet_g5v0d10v5#body = 2.100000e+00
m.xm2.msky130_fd_pr__pfet_g5v0d10v5#dbody = 2.100000e+00
m.xm2.msky130_fd_pr__pfet_g5v0d10v5#sbody = 2.100000e+00
m.xm3.msky130_fd_pr__pfet_g5v0d10v5#body = 2.100000e+00
m.xm3.msky130_fd_pr__pfet_g5v0d10v5#dbody = 2.100000e+00
m.xm3.msky130_fd_pr__pfet_g5v0d10v5#sbody = 2.100000e+00
m.xm4.msky130_fd_pr__pfet_g5v0d10v5#body = 2.100000e+00
m.xm4.msky130_fd_pr__pfet_g5v0d10v5#dbody = 2.100000e+00
m.xm4.msky130_fd_pr__pfet_g5v0d10v5#sbody = 2.100000e+00
m.xm5.msky130_fd_pr__pfet_g5v0d10v5#body = 2.100000e+00
m.xm5.msky130_fd_pr__pfet_g5v0d10v5#dbody = 2.100000e+00
m.xm5.msky130_fd_pr__pfet_g5v0d10v5#sbody = 2.100000e+00
m.xm6.msky130_fd_pr__nfet_g5v0d10v5#body = 1.071307e-11
m.xm6.msky130_fd_pr__nfet_g5v0d10v5#dbody = 2.678268e-11
m.xm6.msky130_fd_pr__nfet_g5v0d10v5#sbody = 5.356539e-12
m.xm7.msky130_fd_pr__pfet_g5v0d10v5#body = 2.100000e+00
m.xm7.msky130_fd_pr__pfet_g5v0d10v5#dbody = 2.100000e+00
m.xm7.msky130_fd_pr__pfet_g5v0d10v5#sbody = 2.100000e+00
m.xm8.msky130_fd_pr__pfet_g5v0d10v5#body = 2.100000e+00
m.xm8.msky130_fd_pr__pfet_g5v0d10v5#dbody = 2.100000e+00
m.xm8.msky130_fd_pr__pfet_g5v0d10v5#sbody = 2.100000e+00
m.xm9.msky130_fd_pr__nfet_g5v0d10v5#body = 1.344845e-11
m.xm9.msky130_fd_pr__nfet_g5v0d10v5#dbody = 3.356138e-11
m.xm9.msky130_fd_pr__nfet_g5v0d10v5#sbody = 6.783976e-12
m.xm10.msky130_fd_pr__nfet_g5v0d10v5#body = 1.118312e-11
m.xm10.msky130_fd_pr__nfet_g5v0d10v5#dbody = 2.789804e-11
m.xm10.msky130_fd_pr__nfet_g5v0d10v5#sbody = 5.651309e-12
m.xm11.msky130_fd_pr__pfet_g5v0d10v5#body = 2.100000e+00
m.xm11.msky130_fd_pr__pfet_g5v0d10v5#dbody = 2.100000e+00
m.xm11.msky130_fd_pr__pfet_g5v0d10v5#sbody = 2.100000e+00
m.xm12.msky130_fd_pr__pfet_g5v0d10v5#body = 2.100000e+00
m.xm12.msky130_fd_pr__pfet_g5v0d10v5#dbody = 2.100000e+00
m.xm12.msky130_fd_pr__pfet_g5v0d10v5#sbody = 2.100000e+00
m.xm13.msky130_fd_pr__nfet_g5v0d10v5#body = 2.987354e-14
m.xm13.msky130_fd_pr__nfet_g5v0d10v5#dbody = 7.468366e-14
m.xm13.msky130_fd_pr__nfet_g5v0d10v5#sbody = 1.493694e-14
m.xm14.msky130_fd_pr__pfet_g5v0d10v5#body = 2.100000e+00
m.xm14.msky130_fd_pr__pfet_g5v0d10v5#dbody = 2.100000e+00
m.xm14.msky130_fd_pr__pfet_g5v0d10v5#sbody = 2.100000e+00
m.xm15.msky130_fd_pr__nfet_g5v0d10v5#body = 1.997330e-13
m.xm15.msky130_fd_pr__nfet_g5v0d10v5#dbody = 4.993325e-13
m.xm15.msky130_fd_pr__nfet_g5v0d10v5#sbody = 9.986657e-14
m.xm16.msky130_fd_pr__nfet_g5v0d10v5#body = 3.651082e-11
m.xm16.msky130_fd_pr__nfet_g5v0d10v5#dbody = 7.075553e-11
m.xm16.msky130_fd_pr__nfet_g5v0d10v5#sbody = 3.877692e-11
m.xm17.msky130_fd_pr__pfet_g5v0d10v5#body = 2.100000e+00
m.xm17.msky130_fd_pr__pfet_g5v0d10v5#dbody = 2.100000e+00
m.xm17.msky130_fd_pr__pfet_g5v0d10v5#sbody = 2.100000e+00
m.xm18.msky130_fd_pr__nfet_g5v0d10v5#body = 8.275939e-12
m.xm18.msky130_fd_pr__nfet_g5v0d10v5#dbody = 2.068984e-11
m.xm18.msky130_fd_pr__nfet_g5v0d10v5#sbody = 4.137975e-12
m.xm19.msky130_fd_pr__nfet_g5v0d10v5#body = 1.160202e-11
m.xm19.msky130_fd_pr__nfet_g5v0d10v5#dbody = 2.758637e-11
m.xm19.msky130_fd_pr__nfet_g5v0d10v5#sbody = 7.219686e-12
m.xm20.msky130_fd_pr__nfet_g5v0d10v5#body = 1.066252e-11
m.xm20.msky130_fd_pr__nfet_g5v0d10v5#dbody = 2.665629e-11
m.xm20.msky130_fd_pr__nfet_g5v0d10v5#sbody = 5.331265e-12
m.xm22.msky130_fd_pr__nfet_g5v0d10v5#body = 7.093704e-13
m.xm22.msky130_fd_pr__nfet_g5v0d10v5#dbody = 1.773425e-12
m.xm22.msky130_fd_pr__nfet_g5v0d10v5#sbody = 3.546866e-13
m.xm24.msky130_fd_pr__pfet_g5v0d10v5#body = 2.100000e+00
m.xm24.msky130_fd_pr__pfet_g5v0d10v5#dbody = 2.100000e+00
m.xm24.msky130_fd_pr__pfet_g5v0d10v5#sbody = 2.100000e+00
m.xm26.msky130_fd_pr__pfet_g5v0d10v5#body = 2.100000e+00
m.xm26.msky130_fd_pr__pfet_g5v0d10v5#dbody = 2.100000e+00
m.xm26.msky130_fd_pr__pfet_g5v0d10v5#sbody = 2.100000e+00
mir = 8.344340e-01
net1 = 5.999304e-01
net2 = 1.597162e-02
net3 = 6.003049e-01
net4 = 5.674281e-02
net5 = 8.714099e-01
net6 = 8.570382e-01
net7 = 5.999857e-01
net8 = 8.922561e-01
net9 = 1.073483e+00
net10 = 2.389726e-03
net11 = 6.620733e-01
net12 = 6.620733e-01
net13 = 0.000000e+00
out = 6.620733e-01
pos = 6.094705e-01
q.xq2.qsky130_fd_pr__pnp_05v5_w0p68l0p68#collcx = 2.230537e-07
q.xq3.qsky130_fd_pr__pnp_05v5_w0p68l0p68#collcx = 2.196478e-07
q.xq4.qsky130_fd_pr__pnp_05v5_w0p68l0p68#collcx = 2.196478e-07
q.xq8.qsky130_fd_pr__pnp_05v5_w0p68l0p68#collcx = 2.196478e-07
q.xq10.qsky130_fd_pr__pnp_05v5_w0p68l0p68#collcx = 2.196478e-07
q.xq12.qsky130_fd_pr__pnp_05v5_w0p68l0p68#collcx = 2.196478e-07
q.xq14.qsky130_fd_pr__pnp_05v5_w0p68l0p68#collcx = 2.196478e-07
q.xq16.qsky130_fd_pr__pnp_05v5_w0p68l0p68#collcx = 2.196478e-07
q.xq18.qsky130_fd_pr__pnp_05v5_w0p68l0p68#collcx = 2.196478e-07
vb = 8.529998e-01
vdd = 2.100000e+00
vs#branch = -5.09498e-02
vt#branch = 0.000000e+00
xc1.a = 0.000000e+00
xc1.b1 = 0.000000e+00
xc3.a = 6.620733e-01
xc3.b1 = 6.620733e-01
xr1.xsky130_fd_pr__res_xhigh_po_0p69.ra = 6.035954e-01
xr2.xsky130_fd_pr__res_xhigh_po_0p69.ra = 6.039145e-01
xr3.xsky130_fd_pr__res_xhigh_po_0p69.ra = 3.696699e-03
xr4.xsky130_fd_pr__res_xhigh_po_0p69.ra = 5.999327e-01
xr5.xsky130_fd_pr__res_xhigh_po_0p69.ra = 3.694639e-03
xr6.xsky130_fd_pr__res_xhigh_po_0p69.ra = 3.741255e-03
xr7.xsky130_fd_pr__res_xhigh_po_0p69.ra = 6.620733e-01
xr8.xsky130_fd_pr__res_xhigh_po_0p69.ra = 6.158912e-01
xr9.xsky130_fd_pr__res_xhigh_po_0p69.ra = 6.555479e-03
Doing analysis at TEMP = 0.000000 and TNOM = 27.000000


No. of Data Rows : 91
Note: Starting true gmin stepping
Trying gmin =   1.0000E-03 Note: One successful gmin step
Trying gmin =   1.0000E-04 Note: One successful gmin step
Trying gmin =   1.0000E-05 Note: One successful gmin step
Trying gmin =   1.0000E-06 Note: One successful gmin step
Trying gmin =   1.0000E-07 Note: One successful gmin step
Trying gmin =   1.0000E-08 Warning: Further gmin increment
Trying gmin =   5.6234E-08 Note: One successful gmin step
Trying gmin =   2.3714E-08 Note: One successful gmin step
Trying gmin =   6.4938E-09 Warning: Further gmin increment
Trying gmin =   1.7154E-08 Warning: Further gmin increment
Trying gmin =   2.1870E-08 Note: One successful gmin step
Trying gmin =   1.9369E-08 Note: One successful gmin step
Trying gmin =   1.6144E-08 Warning: Further gmin increment
Trying gmin =   1.8507E-08 Warning: Further gmin increment
Trying gmin =   1.9150E-08 Warning: Further gmin increment
Trying gmin =   1.9314E-08 Note: One successful gmin step
Trying gmin =   1.9232E-08 Note: One successful gmin step
Trying gmin =   1.9109E-08 Warning: Further gmin increment
Trying gmin =   1.9201E-08 Note: One successful gmin step
Trying gmin =   1.9155E-08 Warning: Further gmin increment
Trying gmin =   1.9189E-08 Warning: Further gmin increment
Trying gmin =   1.9198E-08 Note: One successful gmin step
Trying gmin =   1.9194E-08 Note: One successful gmin step
Trying gmin =   1.9187E-08 Warning: Further gmin increment
Trying gmin =   1.9192E-08 Note: One successful gmin step
Trying gmin =   1.9190E-08 Warning: Further gmin increment
Trying gmin =   1.9192E-08 Warning: Last gmin step failed
Warning: True gmin stepping failed
Note: Starting dynamic gmin stepping
Trying gmin =   1.0000E-03 Note: One successful gmin step
Trying gmin =   1.0000E-04 Note: One successful gmin step
Trying gmin =   1.0000E-05 Note: One successful gmin step
Trying gmin =   1.0000E-06 Warning: Further gmin increment
Trying gmin =   5.6234E-06 Note: One successful gmin step
Trying gmin =   2.3714E-06 Note: One successful gmin step
Trying gmin =   1.5399E-06 Note: One successful gmin step
Trying gmin =   8.0584E-07 Note: One successful gmin step
Trying gmin =   3.0505E-07 Note: One successful gmin step
Trying gmin =   7.1050E-08 Warning: Further gmin increment
Trying gmin =   2.1192E-07 Note: One successful gmin step
Trying gmin =   1.2271E-07 Note: One successful gmin step
Trying gmin =   5.4064E-08 Warning: Further gmin increment
Trying gmin =   9.9972E-08 Note: One successful gmin step
Trying gmin =   7.3518E-08 Warning: Further gmin increment
Trying gmin =   9.2578E-08 Note: One successful gmin step
Trying gmin =   8.2499E-08 Warning: Further gmin increment
Trying gmin =   8.9948E-08 Note: One successful gmin step
Trying gmin =   8.6143E-08 Warning: Further gmin increment
Trying gmin =   8.8982E-08 Note: One successful gmin step
Trying gmin =   8.7551E-08 Warning: Further gmin increment
Trying gmin =   8.8622E-08 Note: One successful gmin step
Trying gmin =   8.8085E-08 Warning: Further gmin increment
Trying gmin =   8.8487E-08 Note: One successful gmin step
Trying gmin =   8.8286E-08 Note: One successful gmin step
Trying gmin =   8.7984E-08 Warning: Further gmin increment
Trying gmin =   8.8210E-08 Warning: Further gmin increment
Trying gmin =   8.8267E-08 Note: One successful gmin step
Trying gmin =   8.8239E-08 Warning: Further gmin increment
Trying gmin =   8.8260E-08 Note: One successful gmin step
Trying gmin =   8.8249E-08 Warning: Further gmin increment
Trying gmin =   8.8257E-08 Note: One successful gmin step
Trying gmin =   8.8253E-08 Note: One successful gmin step
Trying gmin =   8.8247E-08 Warning: Further gmin increment
Trying gmin =   8.8252E-08 Note: One successful gmin step
Trying gmin =   8.8249E-08 Warning: Last gmin step failed
Warning: Dynamic gmin stepping failed
Note: Starting source stepping
Supplies reduced to   0.0000% Note: One successful source step
Supplies reduced to   0.1000% Note: One successful source step
Supplies reduced to   0.2000% Note: One successful source step
Supplies reduced to   0.3500% Note: One successful source step
Supplies reduced to   0.5750% Note: One successful source step
Supplies reduced to   0.9125% Note: One successful source step
Supplies reduced to   1.4188% Note: One successful source step
Supplies reduced to   2.1781% Note: One successful source step
Supplies reduced to   3.3172% Note: One successful source step
Supplies reduced to   5.0258% Note: One successful source step
Supplies reduced to   7.5887% Note: One successful source step
Supplies reduced to  11.4330% Note: One successful source step
Supplies reduced to  17.1995% Note: One successful source step
Supplies reduced to  25.8493% Note: One successful source step
Supplies reduced to  38.8239% Supplies reduced to  25.8493% Note: One successful source step
Supplies reduced to  26.8493% Note: One successful source step
Supplies reduced to  28.3493% Note: One successful source step
Supplies reduced to  30.5993% Note: One successful source step
Supplies reduced to  33.9743% Note: One successful source step
Supplies reduced to  39.0368% Note: One successful source step
Supplies reduced to  46.6305% Supplies reduced to  39.0368% Note: One successful source step
Supplies reduced to  40.0368% Note: One successful source step
Supplies reduced to  41.5368% Note: One successful source step
Supplies reduced to  43.7868% Note: One successful source step
Supplies reduced to  46.0368% Note: One successful source step
Supplies reduced to  49.4118% Supplies reduced to  46.0368% Note: One successful source step
Supplies reduced to  46.5430% Note: One successful source step
Supplies reduced to  47.3024% Note: One successful source step
Supplies reduced to  48.4415% Supplies reduced to  47.3024% Note: One successful source step
Supplies reduced to  47.4733% Note: One successful source step
Supplies reduced to  47.7295% Note: One successful source step
Supplies reduced to  48.1140% Note: One successful source step
Supplies reduced to  48.6906% Note: One successful source step
Supplies reduced to  49.2673% Note: One successful source step
Supplies reduced to  50.1323% Note: One successful source step
Supplies reduced to  51.4297% Note: One successful source step
Supplies reduced to  53.3759% Note: One successful source step
Supplies reduced to  56.2952% Note: One successful source step
Supplies reduced to  60.6741% Note: One successful source step
Supplies reduced to  67.2425% Note: One successful source step
Supplies reduced to  77.0952% Note: One successful source step
Supplies reduced to  91.8741% Note: One successful source step
Supplies reduced to 100.0000% Note: One successful source step
Note: Source stepping completed
 Reference value :  2.80000e+00pm                  =  9.112832e+01
Doing analysis at TEMP = 0.000000 and TNOM = 27.000000


No. of Data Rows : 91
psrr100             =  -3.130416e+01
psrr100k            =  -5.937697e+00
Doing analysis at TEMP = 0.000000 and TNOM = 27.000000


No. of Data Rows : 86
temp_coeff = 9.116258e+01
Doing analysis at TEMP = 0.000000 and TNOM = 27.000000


No. of Data Rows : 141
vldo_sup_2          =  7.579522e-01
vldo_sup_2_8        =  8.796578e-01
line_reg = 1.521320e-01
Error(parse.c--checkvalid): vin: zero length vector.
Error: RHS "vin-1.764" invalid
Error(parse.c--checkvalid): dropout: zero length vector.
Error: no such vector dropout
Note: No ".plot", ".print", or ".fourier" lines; no simulations run

Error: measure  vin  (WHEN) : out of interval
 meas dc vin when v(ldo_out)=1.764 failed!

