Note: Starting true gmin stepping
Trying gmin =   1.0000E-03 Note: One successful gmin step
Trying gmin =   1.0000E-04 Note: One successful gmin step
Trying gmin =   1.0000E-05 Note: One successful gmin step
Trying gmin =   1.0000E-06 Note: One successful gmin step
Trying gmin =   1.0000E-07 Note: One successful gmin step
Trying gmin =   3.1623E-08 Note: One successful gmin step
Trying gmin =   1.0000E-08 Note: One successful gmin step
Trying gmin =   1.7783E-09 Note: One successful gmin step
Trying gmin =   1.7783E-10 Note: One successful gmin step
Trying gmin =   1.7783E-11 Note: One successful gmin step
Trying gmin =   1.7783E-12 Note: One successful gmin step
Trying gmin =   1.0000E-12 Note: One successful gmin step
Note: True gmin stepping completed
 Reference value :  0.00000e+00
No compatibility mode selected!


Circuit: * ldo netlist 

Doing analysis at TEMP = 0.000000 and TNOM = 27.000000


No. of Data Rows : 1
bg_out = 1.192382e+00
inn = 1.259051e+00
inp = 1.259008e+00
l1#branch = 0.000000e+00
ldo_out = 1.792826e+00
m.xm1.msky130_fd_pr__nfet_g5v0d10v5#body = 1.483175e-11
m.xm1.msky130_fd_pr__nfet_g5v0d10v5#dbody = 3.099458e-11
m.xm1.msky130_fd_pr__nfet_g5v0d10v5#sbody = 1.350066e-11
m.xm2.msky130_fd_pr__pfet_g5v0d10v5#body = 2.100000e+00
m.xm2.msky130_fd_pr__pfet_g5v0d10v5#dbody = 2.100000e+00
m.xm2.msky130_fd_pr__pfet_g5v0d10v5#sbody = 2.100000e+00
m.xm3.msky130_fd_pr__pfet_g5v0d10v5#body = 2.100000e+00
m.xm3.msky130_fd_pr__pfet_g5v0d10v5#dbody = 2.100000e+00
m.xm3.msky130_fd_pr__pfet_g5v0d10v5#sbody = 2.100000e+00
m.xm4.msky130_fd_pr__pfet_g5v0d10v5#body = 2.100000e+00
m.xm4.msky130_fd_pr__pfet_g5v0d10v5#dbody = 2.100000e+00
m.xm4.msky130_fd_pr__pfet_g5v0d10v5#sbody = 2.100000e+00
m.xm5.msky130_fd_pr__pfet_g5v0d10v5#body = 2.100000e+00
m.xm5.msky130_fd_pr__pfet_g5v0d10v5#dbody = 2.100000e+00
m.xm5.msky130_fd_pr__pfet_g5v0d10v5#sbody = 2.100000e+00
m.xm6.msky130_fd_pr__nfet_g5v0d10v5#body = 1.260411e-11
m.xm6.msky130_fd_pr__nfet_g5v0d10v5#dbody = 3.151025e-11
m.xm6.msky130_fd_pr__nfet_g5v0d10v5#sbody = 6.302057e-12
m.xm7.msky130_fd_pr__pfet_g5v0d10v5#body = 2.100000e+00
m.xm7.msky130_fd_pr__pfet_g5v0d10v5#dbody = 2.100000e+00
m.xm7.msky130_fd_pr__pfet_g5v0d10v5#sbody = 2.100000e+00
m.xm8.msky130_fd_pr__pfet_g5v0d10v5#body = 2.100000e+00
m.xm8.msky130_fd_pr__pfet_g5v0d10v5#dbody = 2.100000e+00
m.xm8.msky130_fd_pr__pfet_g5v0d10v5#sbody = 2.100000e+00
m.xm9.msky130_fd_pr__nfet_g5v0d10v5#body = 1.517117e-11
m.xm9.msky130_fd_pr__nfet_g5v0d10v5#dbody = 3.337237e-11
m.xm9.msky130_fd_pr__nfet_g5v0d10v5#sbody = 1.214115e-11
m.xm10.msky130_fd_pr__nfet_g5v0d10v5#body = 1.492783e-11
m.xm10.msky130_fd_pr__nfet_g5v0d10v5#dbody = 3.276401e-11
m.xm10.msky130_fd_pr__nfet_g5v0d10v5#sbody = 1.201948e-11
m.xm11.msky130_fd_pr__pfet_g5v0d10v5#body = 2.100000e+00
m.xm11.msky130_fd_pr__pfet_g5v0d10v5#dbody = 2.100000e+00
m.xm11.msky130_fd_pr__pfet_g5v0d10v5#sbody = 2.100000e+00
m.xm12.msky130_fd_pr__pfet_g5v0d10v5#body = 2.100000e+00
m.xm12.msky130_fd_pr__pfet_g5v0d10v5#dbody = 2.100000e+00
m.xm12.msky130_fd_pr__pfet_g5v0d10v5#sbody = 2.100000e+00
m.xm13.msky130_fd_pr__nfet_g5v0d10v5#body = 2.277761e-12
m.xm13.msky130_fd_pr__nfet_g5v0d10v5#dbody = 5.694393e-12
m.xm13.msky130_fd_pr__nfet_g5v0d10v5#sbody = 1.138889e-12
m.xm14.msky130_fd_pr__pfet_g5v0d10v5#body = 2.100000e+00
m.xm14.msky130_fd_pr__pfet_g5v0d10v5#dbody = 2.100000e+00
m.xm14.msky130_fd_pr__pfet_g5v0d10v5#sbody = 2.100000e+00
m.xm15.msky130_fd_pr__nfet_g5v0d10v5#body = 3.921207e-17
m.xm15.msky130_fd_pr__nfet_g5v0d10v5#dbody = 9.802858e-17
m.xm15.msky130_fd_pr__nfet_g5v0d10v5#sbody = 1.960761e-17
m.xm16.msky130_fd_pr__nfet_g5v0d10v5#body = 4.198825e-11
m.xm16.msky130_fd_pr__nfet_g5v0d10v5#dbody = 7.349424e-11
m.xm16.msky130_fd_pr__nfet_g5v0d10v5#sbody = 5.247051e-11
m.xm17.msky130_fd_pr__pfet_g5v0d10v5#body = 2.100000e+00
m.xm17.msky130_fd_pr__pfet_g5v0d10v5#dbody = 2.100000e+00
m.xm17.msky130_fd_pr__pfet_g5v0d10v5#sbody = 2.100000e+00
m.xm18.msky130_fd_pr__nfet_g5v0d10v5#body = 1.692025e-11
m.xm18.msky130_fd_pr__nfet_g5v0d10v5#dbody = 4.229985e-11
m.xm18.msky130_fd_pr__nfet_g5v0d10v5#sbody = 8.460136e-12
m.xm19.msky130_fd_pr__nfet_g5v0d10v5#body = 1.489366e-11
m.xm19.msky130_fd_pr__nfet_g5v0d10v5#dbody = 3.114936e-11
m.xm19.msky130_fd_pr__nfet_g5v0d10v5#sbody = 1.353162e-11
m.xm20.msky130_fd_pr__nfet_g5v0d10v5#body = 1.322776e-11
m.xm20.msky130_fd_pr__nfet_g5v0d10v5#dbody = 3.306939e-11
m.xm20.msky130_fd_pr__nfet_g5v0d10v5#sbody = 6.613891e-12
m.xm22.msky130_fd_pr__nfet_g5v0d10v5#body = 3.042430e-12
m.xm22.msky130_fd_pr__nfet_g5v0d10v5#dbody = 7.606070e-12
m.xm22.msky130_fd_pr__nfet_g5v0d10v5#sbody = 1.521219e-12
m.xm24.msky130_fd_pr__pfet_g5v0d10v5#body = 2.100000e+00
m.xm24.msky130_fd_pr__pfet_g5v0d10v5#dbody = 2.100000e+00
m.xm24.msky130_fd_pr__pfet_g5v0d10v5#sbody = 2.100000e+00
m.xm26.msky130_fd_pr__pfet_g5v0d10v5#body = 2.100000e+00
m.xm26.msky130Note: Starting true gmin stepping
Trying gmin =   1.0000E-03 Note: One successful gmin step
Trying gmin =   1.0000E-04 Note: One successful gmin step
Trying gmin =   1.0000E-05 Note: One successful gmin step
Trying gmin =   1.0000E-06 Note: One successful gmin step
Trying gmin =   1.0000E-07 Note: One successful gmin step
Trying gmin =   3.1623E-08 Note: One successful gmin step
Trying gmin =   1.0000E-08 Note: One successful gmin step
Trying gmin =   1.7783E-09 Note: One successful gmin step
Trying gmin =   1.7783E-10 Note: One successful gmin step
Trying gmin =   1.7783E-11 Note: One successful gmin step
Trying gmin =   1.7783E-12 Note: One successful gmin step
Trying gmin =   1.0000E-12 Note: One successful gmin step
Note: True gmin stepping completed
_fd_pr__pfet_g5v0d10v5#dbody = 2.100000e+00
m.xm26.msky130_fd_pr__pfet_g5v0d10v5#sbody = 2.100000e+00
mir = 9.431436e-01
net1 = 7.689948e-01
net2 = 3.135100e-06
net3 = 8.225160e-01
net4 = 2.433867e-01
net5 = 9.480966e-01
net6 = 1.008321e+00
net7 = 8.224724e-01
net8 = 1.012001e+00
net9 = 1.031468e+00
net10 = 1.822190e-01
net11 = 1.353587e+00
net12 = 1.353587e+00
net13 = 0.000000e+00
out = 1.353587e+00
pos = 1.192575e+00
q.xq2.qsky130_fd_pr__pnp_05v5_w0p68l0p68#collcx = 1.780801e-03
q.xq3.qsky130_fd_pr__pnp_05v5_w0p68l0p68#collcx = 2.240536e-04
q.xq4.qsky130_fd_pr__pnp_05v5_w0p68l0p68#collcx = 2.240536e-04
q.xq8.qsky130_fd_pr__pnp_05v5_w0p68l0p68#collcx = 2.240536e-04
q.xq10.qsky130_fd_pr__pnp_05v5_w0p68l0p68#collcx = 2.240536e-04
q.xq12.qsky130_fd_pr__pnp_05v5_w0p68l0p68#collcx = 2.240536e-04
q.xq14.qsky130_fd_pr__pnp_05v5_w0p68l0p68#collcx = 2.240536e-04
q.xq16.qsky130_fd_pr__pnp_05v5_w0p68l0p68#collcx = 2.240536e-04
q.xq18.qsky130_fd_pr__pnp_05v5_w0p68l0p68#collcx = 2.240536e-04
vb = 1.058219e+00
vdd = 2.100000e+00
vs#branch = -1.64921e-04
vt#branch = 0.000000e+00
xc1.a = 0.000000e+00
xc1.b1 = 0.000000e+00
xc3.a = 1.353587e+00
xc3.b1 = 1.353587e+00
xr1.xsky130_fd_pr__res_xhigh_po_0p69.ra = 8.297015e-01
xr2.xsky130_fd_pr__res_xhigh_po_0p69.ra = 8.297451e-01
xr3.xsky130_fd_pr__res_xhigh_po_0p69.ra = 5.158518e-03
xr4.xsky130_fd_pr__res_xhigh_po_0p69.ra = 7.711870e-01
xr5.xsky130_fd_pr__res_xhigh_po_0p69.ra = 5.158225e-03
xr6.xsky130_fd_pr__res_xhigh_po_0p69.ra = 7.702561e-03
xr7.xsky130_fd_pr__res_xhigh_po_0p69.ra = 1.353587e+00
xr8.xsky130_fd_pr__res_xhigh_po_0p69.ra = 1.205394e+00
xr9.xsky130_fd_pr__res_xhigh_po_0p69.ra = 1.344333e-02
Doing analysis at TEMP = 0.000000 and TNOM = 27.000000


No. of Data Rows : 91
Note: Starting true gmin stepping
Trying gmin =   1.0000E-03 Note: One successful gmin step
Trying gmin =   1.0000E-04 Note: One successful gmin step
Trying gmin =   1.0000E-05 Note: One successful gmin step
Trying gmin =   1.0000E-06 Note: One successful gmin step
Trying gmin =   1.0000E-07 Note: One successful gmin step
Trying gmin =   3.1623E-08 Note: One successful gmin step
Trying gmin =   1.0000E-08 Note: One successful gmin step
Trying gmin =   1.7783E-09 Note: One successful gmin step
Trying gmin =   1.7783E-10 Note: One successful gmin step
Trying gmin =   1.7783E-11 Note: One successful gmin step
Trying gmin =   1.7783E-12 Note: One successful gmin step
Trying gmin =   1.0000E-12 Note: One successful gmin step
Note: True gmin stepping completed
 Reference value :  4.90000e+01Note: Starting true gmin stepping
Trying gmin =   1.0000E-03 Note: One successful gmin step
Trying gmin =   1.0000E-04 Note: One successful gmin step
Trying gmin =   1.0000E-05 Note: One successful gmin step
Trying gmin =   1.0000E-06 Note: One successful gmin step
Trying gmin =   1.0000E-07 Warning: Further gmin increment
Trying gmin =   5.6234E-07 Note: One successful gmin step
Trying gmin =   2.3714E-07 Note: One successful gmin step
Trying gmin =   6.4938E-08 Warning: Further gmin increment
Trying gmin =   1.7154E-07 Note: One successful gmin step
Trying gmin =   1.0554E-07 Warning: Further gmin increment
Trying gmin =   1.5193E-07 Note: One successful gmin step
Trying gmin =   1.2663E-07 Note: One successful gmin step
Trying gmin =   9.6358E-08 Warning: Further gmin increment
Trying gmin =   1.1827E-07 Note: One successful gmin step
Trying gmin =   1.0675E-07 Warning: Further gmin increment
Trying gmin =   1.1528E-07 Note: One successful gmin step
Trying gmin =   1.1093E-07 Warning: Further gmin increment
Trying gmin =   1.1418E-07 Note: One successful gmin step
Trying gmin =   1.1363E-07 Note: One successful gmin step
Trying gmin =   1.1281E-07 Note: One successful gmin step
Trying gmin =   1.1160E-07 Note: One successful gmin step
Trying gmin =   1.0981E-07 Note: One successful gmin step
Trying gmin =   1.0717E-07 Note: One successful gmin step
Trying gmin =   1.0333E-07 Note: One successful gmin step
Trying gmin =   9.7832E-08 Note: One successful gmin step
Trying gmin =   9.0125E-08 Note: One successful gmin step
Trying gmin =   7.9688E-08 Note: One successful gmin step
Trying gmin =   6.6254E-08 Warning: Further gmin increment
Trying gmin =   7.6093E-08 Note: One successful gmin step
Trying gmin =   7.1003E-08 Note: One successful gmin step
Trying gmin =   6.3999E-08 Warning: Further gmin increment
Trying gmin =   6.9183E-08 Note: One successful gmin step
Trying gmin =   6.6541E-08 Warning: Further gmin increment
Trying gmin =   6.8513E-08 Note: One successful gmin step
Trying gmin =   6.7520E-08 Warning: Further gmin increment
Trying gmin =   6.8263E-08 Note: One successful gmin step
Trying gmin =   6.8015E-08 Note: One successful gmin step
Trying gmin =   6.7643E-08 Note: One successful gmin step
Trying gmin =   6.7090E-08 Note: One successful gmin step
Trying gmin =   6.6268E-08 Note: One successful gmin step
Trying gmin =   6.5055E-08 Note: One successful gmin step
Trying gmin =   6.3276E-08 Note: One successful gmin step
Trying gmin =   6.0698E-08 Note: One successful gmin step
Trying gmin =   5.7028E-08 Note: One successful gmin step
Trying gmin =   5.1934E-08 Note: One successful gmin step
Trying gmin =   4.5133E-08 Note: One successful gmin step
Trying gmin =   3.6564E-08 Note: One successful gmin step
Trying gmin =   2.6663E-08 Note: One successful gmin step
Trying gmin =   1.6603E-08 Note: One successful gmin step
Trying gmin =   8.1581E-09 Note: One successful gmin step
Trying gmin =   2.8100E-09 Note: One successful gmin step
Trying gmin =   5.6804E-10 Note: One successful gmin step
Trying gmin =   5.6804E-11 Note: One successful gmin step
Trying gmin =   5.6804E-12 Note: One successful gmin step
Trying gmin =   1.0000E-12 Note: One successful gmin step
Note: True gmin stepping completed
 Reference value :  2.80000e+00Note: Starting true gmin stepping
Trying gmin =   1.0000E-03 Note: One successful gmin step
Trying gmin =   1.0000E-04 Note: One successful gmin step
Trying gmin =   1.0000E-05 Note: One successful gmin step
Trying gmin =   1.0000E-06 Note: One successful gmin step
Trying gmin =   1.0000E-07 Note: One successful gmin step
Trying gmin =   1.0000E-08 Note: One successful gmin step
Trying gmin =   3.1623E-09 Note: One successful gmin step
Trying gmin =   5.6234E-10 Note: One successful gmin step
Trying gmin =   5.6234E-11 Note: One successful gmin step
Trying gmin =   5.6234E-12 Note: One successful gmin step
Trying gmin =   1.0000E-12 Warning: Further gmin increment
Trying gmin =   3.6517E-12 Error: -4.04684e+180, 2 out of range for ^
Warning: Further gmin increment
Trying gmin =   5.0481E-12 Note: One successful gmin step
Trying gmin =   4.2935E-12 Note: One successful gmin step
Trying gmin =   3.3678E-12 Warning: Further gmin increment
Trying gmin =   4.0406E-12 Warning: Further gmin increment
Trying gmin =   4.2288E-12 Warning: Further gmin increment
Trying gmin =   4.2772E-12 Note: One successful gmin step
Trying gmin =   4.2610E-12 Warning: Further gmin increment
Trying gmin =   4.2732E-12 Note: One successful gmin step
Trying gmin =   4.2671E-12 Warning: Further gmin increment
Trying gmin =   4.2717E-12 Note: One successful gmin step
Trying gmin =   4.2694E-12 Note: One successful gmin step
Trying gmin =   4.2660E-12 Note: One successful gmin step
Trying gmin =   4.2643E-12 Note: One successful gmin step
Trying gmin =   4.2617E-12 Warning: Further gmin increment
Trying gmin =   4.2636E-12 Warning: Further gmin increment
Trying gmin =   4.2641E-12 Warning: Last gmin step failed
Warning: True gmin stepping failed
Note: Starting dynamic gmin stepping
Trying gmin =   1.0000E-03 Note: One successful gmin step
Trying gmin =   1.0000E-04 Note: One successful gmin step
Trying gmin =   1.0000E-05 Note: One successful gmin step
Trying gmin =   1.0000E-06 Warning: Further gmin increment
Trying gmin =   5.6234E-06 Note: One successful gmin step
Trying gmin =   2.3714E-06 Note: One successful gmin step
Trying gmin =   6.4938E-07 Note: One successful gmin step
Trying gmin =   9.3057E-08 Note: One successful gmin step
Trying gmin =   9.3057E-09 Note: One successful gmin step
Trying gmin =   9.3057E-10 Note: One successful gmin step
Trying gmin =   9.3057E-11 Note: One successful gmin step
Trying gmin =   9.3057E-12 Note: One successful gmin step
Trying gmin =   1.0000E-12 Note: One successful gmin step
Note: Dynamic gmin stepping completed
 Reference value :  1.22000e+00Note: Starting true gmin stepping
Trying gmin =   1.0000E-03 Note: One successful gmin step
Trying gmin =   1.0000E-04 Note: One successful gmin step
Trying gmin =   1.0000E-05 Note: One successful gmin step
Trying gmin =   1.0000E-06 Note: One successful gmin step
Trying gmin =   1.0000E-07 Note: One successful gmin step
Trying gmin =   1.0000E-08 Note: One successful gmin step
Trying gmin =   1.0000E-09 Note: One successful gmin step
Trying gmin =   1.0000E-10 Note: One successful gmin step
Trying gmin =   1.0000E-11 Note: One successful gmin step
Trying gmin =   1.0000E-12 Warning: Further gmin increment
Trying gmin =   5.6234E-12 Note: One successful gmin step
Trying gmin =   2.3714E-12 Warning: Further gmin increment
Trying gmin =   4.5316E-12 Note: One successful gmin step
Trying gmin =   3.2781E-12 Note: One successful gmin step
Trying gmin =   2.0169E-12 Warning: Further gmin increment
Trying gmin =   2.9033E-12 Warning: Further gmin increment
Trying gmin =   3.1801E-12 Warning: Further gmin increment
Trying gmin =   3.2533E-12 Note: One successful gmin step
Trying gmin =   3.2165E-12 Note: One successful gmin step
Trying gmin =   3.1621E-12 Note: One successful gmin step
Trying gmin =   3.1352E-12 Note: One successful gmin step
Trying gmin =   3.0953E-12 Note: One successful gmin step
Trying gmin =   3.0364E-12 Note: One successful gmin step
Trying gmin =   2.9501E-12 Note: One successful gmin step
Trying gmin =   2.8253E-12 Note: One successful gmin step
Trying gmin =   2.6480E-12 Note: One successful gmin step
Trying gmin =   2.4026E-12 Note: One successful gmin step
Trying gmin =   2.0765E-12 Note: One successful gmin step
Trying gmin =   1.6684E-12 Note: One successful gmin step
Trying gmin =   1.2016E-12 Note: One successful gmin step
Trying gmin =   1.0000E-12 Note: One successful gmin step
Note: True gmin stepping completed
 Reference value :  1.20000e+00pm                  =  5.421791e+01
Doing analysis at TEMP = 0.000000 and TNOM = 27.000000


No. of Data Rows : 91
psrr100             =  -5.358965e+01
psrr100k            =  -2.566002e+01
Doing analysis at TEMP = 0.000000 and TNOM = 27.000000


No. of Data Rows : 86
temp_coeff = 8.438727e+01
Doing analysis at TEMP = 0.000000 and TNOM = 27.000000


No. of Data Rows : 141
vldo_sup_2          =  1.793062e+00
vldo_sup_2_8        =  1.792028e+00
line_reg = 1.292500e-03
Note: No ".plot", ".print", or ".fourier" lines; no simulations run
vin                 =  1.764094e+00
dropout = 9.400000e-05
