 Reference value :  0.00000e+00
No compatibility mode selected!


Circuit: * ldo netlist 

Doing analysis at TEMP = 85.000000 and TNOM = 27.000000


No. of Data Rows : 1
bg_out = 1.206724e+00
inn = 1.157575e+00
inp = 1.157509e+00
l1#branch = 0.000000e+00
ldo_out = 1.816229e+00
m.xm1.msky130_fd_pr__nfet_g5v0d10v5#body = 2.710533e-11
m.xm1.msky130_fd_pr__nfet_g5v0d10v5#dbody = 5.091783e-11
m.xm1.msky130_fd_pr__nfet_g5v0d10v5#sbody = 3.039815e-11
m.xm2.msky130_fd_pr__pfet_g5v0d10v5#body = 2.300000e+00
m.xm2.msky130_fd_pr__pfet_g5v0d10v5#dbody = 2.300000e+00
m.xm2.msky130_fd_pr__pfet_g5v0d10v5#sbody = 2.300000e+00
m.xm3.msky130_fd_pr__pfet_g5v0d10v5#body = 2.300000e+00
m.xm3.msky130_fd_pr__pfet_g5v0d10v5#dbody = 2.300000e+00
m.xm3.msky130_fd_pr__pfet_g5v0d10v5#sbody = 2.300000e+00
m.xm4.msky130_fd_pr__pfet_g5v0d10v5#body = 2.300000e+00
m.xm4.msky130_fd_pr__pfet_g5v0d10v5#dbody = 2.300000e+00
m.xm4.msky130_fd_pr__pfet_g5v0d10v5#sbody = 2.300000e+00
m.xm5.msky130_fd_pr__pfet_g5v0d10v5#body = 2.300000e+00
m.xm5.msky130_fd_pr__pfet_g5v0d10v5#dbody = 2.300000e+00
m.xm5.msky130_fd_pr__pfet_g5v0d10v5#sbody = 2.300000e+00
m.xm6.msky130_fd_pr__nfet_g5v0d10v5#body = 2.037498e-11
m.xm6.msky130_fd_pr__nfet_g5v0d10v5#dbody = 5.093732e-11
m.xm6.msky130_fd_pr__nfet_g5v0d10v5#sbody = 1.018761e-11
m.xm7.msky130_fd_pr__pfet_g5v0d10v5#body = 2.300000e+00
m.xm7.msky130_fd_pr__pfet_g5v0d10v5#dbody = 2.300000e+00
m.xm7.msky130_fd_pr__pfet_g5v0d10v5#sbody = 2.300000e+00
m.xm8.msky130_fd_pr__pfet_g5v0d10v5#body = 2.300000e+00
m.xm8.msky130_fd_pr__pfet_g5v0d10v5#dbody = 2.300000e+00
m.xm8.msky130_fd_pr__pfet_g5v0d10v5#sbody = 2.300000e+00
m.xm9.msky130_fd_pr__nfet_g5v0d10v5#body = 2.535356e-11
m.xm9.msky130_fd_pr__nfet_g5v0d10v5#dbody = 4.941993e-11
m.xm9.msky130_fd_pr__nfet_g5v0d10v5#sbody = 2.664074e-11
m.xm10.msky130_fd_pr__nfet_g5v0d10v5#body = 2.507337e-11
m.xm10.msky130_fd_pr__nfet_g5v0d10v5#dbody = 4.871945e-11
m.xm10.msky130_fd_pr__nfet_g5v0d10v5#sbody = 2.650064e-11
m.xm11.msky130_fd_pr__pfet_g5v0d10v5#body = 2.300000e+00
m.xm11.msky130_fd_pr__pfet_g5v0d10v5#dbody = 2.300000e+00
m.xm11.msky130_fd_pr__pfet_g5v0d10v5#sbody = 2.300000e+00
m.xm12.msky130_fd_pr__pfet_g5v0d10v5#body = 2.300000e+00
m.xm12.msky130_fd_pr__pfet_g5v0d10v5#dbody = 2.300000e+00
m.xm12.msky130_fd_pr__pfet_g5v0d10v5#sbody = 2.300000e+00
m.xm13.msky130_fd_pr__nfet_g5v0d10v5#body = 5.334784e-12
m.xm13.msky130_fd_pr__nfet_g5v0d10v5#dbody = 1.333689e-11
m.xm13.msky130_fd_pr__nfet_g5v0d10v5#sbody = 2.667462e-12
m.xm14.msky130_fd_pr__pfet_g5v0d10v5#body = 2.300000e+00
m.xm14.msky130_fd_pr__pfet_g5v0d10v5#dbody = 2.300000e+00
m.xm14.msky130_fd_pr__pfet_g5v0d10v5#sbody = 2.300000e+00
m.xm15.msky130_fd_pr__nfet_g5v0d10v5#body = 9.081509e-15
m.xm15.msky130_fd_pr__nfet_g5v0d10v5#dbody = 2.270335e-14
m.xm15.msky130_fd_pr__nfet_g5v0d10v5#sbody = 4.541173e-15
m.xm16.msky130_fd_pr__nfet_g5v0d10v5#body = 5.382601e-11
m.xm16.msky130_fd_pr__nfet_g5v0d10v5#dbody = 9.501933e-11
m.xm16.msky130_fd_pr__nfet_g5v0d10v5#sbody = 6.645871e-11
m.xm17.msky130_fd_pr__pfet_g5v0d10v5#body = 2.300000e+00
m.xm17.msky130_fd_pr__pfet_g5v0d10v5#dbody = 2.300000e+00
m.xm17.msky130_fd_pr__pfet_g5v0d10v5#sbody = 2.300000e+00
m.xm18.msky130_fd_pr__nfet_g5v0d10v5#body = 2.147341e-11
m.xm18.msky130_fd_pr__nfet_g5v0d10v5#dbody = 5.365527e-11
m.xm18.msky130_fd_pr__nfet_g5v0d10v5#sbody = 1.073679e-11
m.xm19.msky130_fd_pr__nfet_g5v0d10v5#body = 2.719579e-11
m.xm19.msky130_fd_pr__nfet_g5v0d10v5#dbody = 5.114398e-11
m.xm19.msky130_fd_pr__nfet_g5v0d10v5#sbody = 3.044338e-11
m.xm20.msky130_fd_pr__nfet_g5v0d10v5#body = 1.438062e-11
m.xm20.msky130_fd_pr__nfet_g5v0d10v5#dbody = 3.595146e-11
m.xm20.msky130_fd_pr__nfet_g5v0d10v5#sbody = 7.190388e-12
m.xm22.msky130_fd_pr__nfet_g5v0d10v5#body = 1.171654e-11
m.xm22.msky130_fd_pr__nfet_g5v0d10v5#dbody = 2.929125e-11
m.xm22.msky130_fd_pr__nfet_g5v0d10v5#sbody = 5.858385e-12
m.xm24.msky130_fd_pr__pfet_g5v0d10v5#body = 2.300000e+00
m.xm24.msky130_fd_pr__pfet_g5v0d10v5#dbody = 2.300000e+00
m.xm24.msky130_fd_pr__pfet_g5v0d10v5#sbody = 2.300000e+00
m.xm26.msky130_fd_pr__pfet_g5v0d10v5#body = 2.300000e+00
m.xm26.msky130_fd_pr__pfet_g5v0d10v5#dbody = 2.300000e+00
m.xm26.msky130_fd_pr__pfet_g5v0d10v5#sbody = 2.300000e+00
mir = 1.070354e+00
net1 = 6.383584e-01
net2 = 1.750502e-05
net3 = 7.117109e-01
net4 = 2.497979e-01
net5 = 1.077591e+00
net6 = 9.420968e-01
net7 = 7.116431e-01
net8 = 1.154880e+00
net9 = 1.177295e+00
net10 = 2.662246e-01
net11 = 1.556134e+00
net12 = 1.556134e+00
net13 = 0.000000e+00
out = 1.556134e+00
pos = 1.206985e+00
q.xq2.qsky130_fd_pr__pnp_05v5_w0p68l0p68#collcx = 2.933819e-03
q.xq3.qsky130_fd_pr__pnp_05v5_w0p68l0p68#collcx = 3.735175e-04
q.xq4.qsky130_fd_pr__pnp_05v5_w0p68l0p68#collcx = 3.735175e-04
q.xq8.qsky130_fd_pr__pnp_05v5_w0p68l0p68#collcx = 3.735175e-04
q.xq10.qsky130_fd_pr__pnp_05v5_w0p68l0p68#collcx = 3.735175e-04
q.xq12.qsky130_fd_pr__pnp_05v5_w0p68l0p68#collcx = 3.735175e-04
q.xq14.qsky130_fd_pr__pnp_05v5_w0p68l0p68#collcx = 3.735175e-04
q.xq16.qsky130_fd_pr__pnp_05v5_w0p68l0p68#collcx = 3.735175e-04
q.xq18.qsky130_fd_pr__pnp_05v5_w0p68l0p68#collcx = 3.735175e-04
vb = 9.898374e-01
vdd = 2.300000e+00
vs#branch = -1.94525e-04
vt#branch = 0.000000e+00
xc1.a = 0.000000e+00
xc1.b1 = 0.000000e+00
xc3.a = 1.556134e+00
xc3.b1 = 1.556134e+00
xr1.xsky130_fd_pr__res_xhigh_po_0p69.ra = 7.148267e-01
xr2.xsky130_fd_pr__res_xhigh_po_0p69.ra = 7.148945e-01
xr3.xsky130_fd_pr__res_xhigh_po_0p69.ra = 1.911897e-03
xr4.xsky130_fd_pr__res_xhigh_po_0p69.ra = 6.396490e-01
xr5.xsky130_fd_pr__res_xhigh_po_0p69.ra = 1.911704e-03
xr6.xsky130_fd_pr__res_xhigh_po_0p69.ra = 3.373926e-03
xr7.xsky130_fd_pr__res_xhigh_po_0p69.ra = 1.556134e+00
xr8.xsky130_fd_pr__res_xhigh_po_0p69.ra = 1.212590e+00
xr9.xsky130_fd_pr__res_xhigh_po_0p69.ra = 5.880783e-03
Doing analysis at TEMP = 85.000000 and TNOM = 27.000000


No. of Data Rows : 91
Note: Starting true gmin stepping
Trying gmin =   1.0000E-03 Note: One successful gmin step
Trying gmin =   1.0000E-04 Note: One successful gmin step
Trying gmin =   1.0000E-05 Note: One successful gmin step
Trying gmin =   1.0000E-06 Note: One successful gmin step
Trying gmin =   1.0000E-07 Note: One successful gmin step
Trying gmin =   1.0000E-08 Warning: Further gmin increment
Trying gmin =   5.6234E-08 Warning: Further gmin increment
Trying gmin =   8.6596E-08 Warning: Further gmin increment
Trying gmin =   9.6466E-08 Note: One successful gmin step
Trying gmin =   9.1398E-08 Note: One successful gmin step
Trying gmin =   8.8965E-08 Note: One successful gmin step
Trying gmin =   8.5436E-08 Note: One successful gmin step
Trying gmin =   8.0403E-08 Note: One successful gmin step
Trying gmin =   7.3404E-08 Note: One successful gmin step
Trying gmin =   7.0137E-08 Note: One successful gmin step
Trying gmin =   6.5506E-08 Note: One successful gmin step
Trying gmin =   5.9128E-08 Note: One successful gmin step
Trying gmin =   5.0705E-08 Note: One successful gmin step
Trying gmin =   4.0266E-08 Note: One successful gmin step
Trying gmin =   2.8495E-08 Note: One successful gmin step
Trying gmin =   1.6963E-08 Note: One successful gmin step
Trying gmin =   7.7917E-09 Note: One successful gmin step
Trying gmin =   2.4255E-09 Note: One successful gmin step
Trying gmin =   4.2129E-10 Note: One successful gmin step
Trying gmin =   4.2129E-11 Note: One successful gmin step
Trying gmin =   4.2129E-12 Note: One successful gmin step
Trying gmin =   1.0000E-12 Note: One successful gmin step
Note: True gmin stepping completed
 Reference value :  2.80000e+00Note: Starting true gmin stepping
Trying gmin =   1.0000E-03 Note: One successful gmin step
Trying gmin =   1.0000E-04 Note: One successful gmin step
Trying gmin =   1.0000E-05 Note: One successful gmin step
Trying gmin =   1.0000E-06 Note: One successful gmin step
Trying gmin =   1.0000E-07 Note: One successful gmin step
Trying gmin =   1.0000E-08 Warning: Further gmin increment
Trying gmin =   5.6234E-08 Note: One successful gmin step
Trying gmin =   2.3714E-08 Note: One successful gmin step
Trying gmin =   6.4938E-09 Warning: Further gmin increment
Trying gmin =   1.7154E-08 Note: One successful gmin step
Trying gmin =   1.0554E-08 Note: One successful gmin step
Trying gmin =   5.0937E-09 Warning: Further gmin increment
Trying gmin =   8.7970E-09 Note: One successful gmin step
Trying gmin =   6.6940E-09 Note: One successful gmin step
Trying gmin =   4.4433E-09 Note: One successful gmin step
Trying gmin =   2.4029E-09 Note: One successful gmin step
Trying gmin =   9.5562E-10 Note: One successful gmin step
Trying gmin =   2.3967E-10 Note: One successful gmin step
Trying gmin =   3.0102E-11 Note: One successful gmin step
Trying gmin =   3.0102E-12 Note: One successful gmin step
Trying gmin =   1.0000E-12 Note: One successful gmin step
Note: True gmin stepping completed
Note: Starting true gmin stepping
Trying gmin =   1.0000E-03 Note: One successful gmin step
Trying gmin =   1.0000E-04 Note: One successful gmin step
Trying gmin =   1.0000E-05 Note: One successful gmin step
Trying gmin =   1.0000E-06 Note: One successful gmin step
Trying gmin =   1.0000E-07 Note: One successful gmin step
Trying gmin =   1.0000E-08 Warning: Further gmin increment
Trying gmin =   5.6234E-08 Note: One successful gmin step
Trying gmin =   2.3714E-08 Note: One successful gmin step
Trying gmin =   6.4938E-09 Note: One successful gmin step
Trying gmin =   9.3057E-10 Warning: Further gmin increment
Trying gmin =   3.9954E-09 Note: One successful gmin step
Trying gmin =   1.9282E-09 Note: One successful gmin step
Trying gmin =   6.4647E-10 Note: One successful gmin step
Trying gmin =   1.2550E-10 Note: One successful gmin step
Trying gmin =   1.2550E-11 Note: One successful gmin step
Trying gmin =   1.2550E-12 Note: One successful gmin step
Trying gmin =   1.0000E-12 Note: One successful gmin step
Note: True gmin stepping completed
 Reference value :  1.32000e+00pm                  =  5.808659e+01
Doing analysis at TEMP = 85.000000 and TNOM = 27.000000


No. of Data Rows : 91
psrr100             =  -4.993267e+01
psrr100k            =  -2.458383e+01
Doing analysis at TEMP = 85.000000 and TNOM = 27.000000


No. of Data Rows : 86
temp_coeff = 1.803571e+02
Doing analysis at TEMP = 85.000000 and TNOM = 27.000000


No. of Data Rows : 141
vldo_sup_2          =  1.814815e+00
vldo_sup_2_8        =  1.817306e+00
line_reg = 3.113750e-03
Note: No ".plot", ".print", or ".fourier" lines; no simulations run
vin                 =  1.764176e+00
dropout = 1.760000e-04
