Note: Starting true gmin stepping
Trying gmin =   1.0000E-03 Note: One successful gmin step
Trying gmin =   1.0000E-04 Note: One successful gmin step
Trying gmin =   1.0000E-05 Note: One successful gmin step
Trying gmin =   1.0000E-06 Note: One successful gmin step
Trying gmin =   1.0000E-07 Note: One successful gmin step
Trying gmin =   1.0000E-08 Warning: Further gmin increment
Trying gmin =   5.6234E-08 Note: One successful gmin step
Trying gmin =   2.3714E-08 Warning: Further gmin increment
Trying gmin =   4.5316E-08 Warning: Further gmin increment
Trying gmin =   5.3280E-08 Warning: Further gmin increment
Trying gmin =   5.5481E-08 Note: One successful gmin step
Trying gmin =   5.4369E-08 Note: One successful gmin step
Trying gmin =   5.3280E-08 Note: One successful gmin step
Trying gmin =   5.1687E-08 Note: One successful gmin step
Trying gmin =   4.9386E-08 Note: One successful gmin step
Trying gmin =   4.6125E-08 Note: One successful gmin step
Trying gmin =   4.1634E-08 Note: One successful gmin step
Trying gmin =   3.5703E-08 Note: One successful gmin step
Trying gmin =   2.8352E-08 Note: One successful gmin step
Trying gmin =   2.0064E-08 Note: One successful gmin step
Trying gmin =   1.1944E-08 Note: One successful gmin step
Trying gmin =   5.4864E-09 Note: One successful gmin step
Trying gmin =   1.7079E-09 Note: One successful gmin step
Trying gmin =   2.9664E-10 Note: One successful gmin step
Trying gmin =   2.9664E-11 Note: One successful gmin step
Trying gmin =   2.9664E-12 Note: One successful gmin step
Trying gmin =   1.0000E-12 Note: One successful gmin step
Note: True gmin stepping completed
 Reference value :  0.00000e+00
No compatibility mode selected!


Circuit: * ldo netlist 

Doing analysis at TEMP = 0.000000 and TNOM = 27.000000


No. of Data Rows : 1
bg_out = 6.226119e-01
inn = 8.419695e-01
inp = 8.414454e-01
l1#branch = 0.000000e+00
ldo_out = 9.410647e-01
m.xm1.msky130_fd_pr__nfet_g5v0d10v5#body = 1.191182e-11
m.xm1.msky130_fd_pr__nfet_g5v0d10v5#dbody = 2.888050e-11
m.xm1.msky130_fd_pr__nfet_g5v0d10v5#sbody = 6.854941e-12
m.xm2.msky130_fd_pr__pfet_g5v0d10v5#body = 2.100000e+00
m.xm2.msky130_fd_pr__pfet_g5v0d10v5#dbody = 2.100000e+00
m.xm2.msky130_fd_pr__pfet_g5v0d10v5#sbody = 2.100000e+00
m.xm3.msky130_fd_pr__pfet_g5v0d10v5#body = 2.100000e+00
m.xm3.msky130_fd_pr__pfet_g5v0d10v5#dbody = 2.100000e+00
m.xm3.msky130_fd_pr__pfet_g5v0d10v5#sbody = 2.100000e+00
m.xm4.msky130_fd_pr__pfet_g5v0d10v5#body = 2.100000e+00
m.xm4.msky130_fd_pr__pfet_g5v0d10v5#dbody = 2.100000e+00
m.xm4.msky130_fd_pr__pfet_g5v0d10v5#sbody = 2.100000e+00
m.xm5.msky130_fd_pr__pfet_g5v0d10v5#body = 2.100000e+00
m.xm5.msky130_fd_pr__pfet_g5v0d10v5#dbody = 2.100000e+00
m.xm5.msky130_fd_pr__pfet_g5v0d10v5#sbody = 2.100000e+00
m.xm6.msky130_fd_pr__nfet_g5v0d10v5#body = 1.141762e-11
m.xm6.msky130_fd_pr__nfet_g5v0d10v5#dbody = 2.854404e-11
m.xm6.msky130_fd_pr__nfet_g5v0d10v5#sbody = 5.708812e-12
m.xm7.msky130_fd_pr__pfet_g5v0d10v5#body = 2.100000e+00
m.xm7.msky130_fd_pr__pfet_g5v0d10v5#dbody = 2.100000e+00
m.xm7.msky130_fd_pr__pfet_g5v0d10v5#sbody = 2.100000e+00
m.xm8.msky130_fd_pr__pfet_g5v0d10v5#body = 2.100000e+00
m.xm8.msky130_fd_pr__pfet_g5v0d10v5#dbody = 2.100000e+00
m.xm8.msky130_fd_pr__pfet_g5v0d10v5#sbody = 2.100000e+00
m.xm9.msky130_fd_pr__nfet_g5v0d10v5#body = 1.500467e-11
m.xm9.msky130_fd_pr__nfet_g5v0d10v5#dbody = 3.748942e-11
m.xm9.msky130_fd_pr__nfet_g5v0d10v5#sbody = 7.524589e-12
m.xm10.msky130_fd_pr__nfet_g5v0d10v5#body = 1.212711e-11
m.xm10.msky130_fd_pr__nfet_g5v0d10v5#dbody = 3.029552e-11
m.xm10.msky130_fd_pr__nfet_g5v0d10v5#sbody = 6.085809e-12
m.xm11.msky130_fd_pr__pfet_g5v0d10v5#body = 2.100000e+00
m.xm11.msky130_fd_pr__pfet_g5v0d10v5#dbody = 2.100000e+00
m.xm11.msky130_fd_pr__pfet_g5v0d10v5#sbody = 2.100000e+00
m.xm12.msky130_fd_pr__pfet_g5v0d10v5#body = 2.100000e+00
m.xm12.msky130_fd_pr__pfet_g5v0d10v5#dbody = 2.100000e+00
m.xm12.msky130_fd_pr__pfet_g5v0d10v5#sbody = 2.100000e+00
m.xm13.msky130_fd_pr__nfet_g5v0d10v5#body = 1.112658e-14
m.xm13.msky130_fd_pr__nfet_g5v0d10v5#dbody = 2.781637e-14
m.xm13.msky130_fd_pr__nfet_g5v0d10v5#sbody = 5.563361e-15
m.xm14.msky130_fd_pr__pfet_g5v0d10v5#body = 2.100000e+00
m.xm14.msky130_fd_pr__pfet_g5v0d10v5#dbody = 2.100000e+00
m.xm14.msky130_fd_pr__pfet_g5v0d10v5#sbody = 2.100000e+00
m.xm15.msky130_fd_pr__nfet_g5v0d10v5#body = 1.476728e-11
m.xm15.msky130_fd_pr__nfet_g5v0d10v5#dbody = 3.691821e-11
m.xm15.msky130_fd_pr__nfet_g5v0d10v5#sbody = 7.383642e-12
m.xm16.msky130_fd_pr__nfet_g5v0d10v5#body = 3.677474e-11
m.xm16.msky130_fd_pr__nfet_g5v0d10v5#dbody = 7.088749e-11
m.xm16.msky130_fd_pr__nfet_g5v0d10v5#sbody = 3.943672e-11
m.xm17.msky130_fd_pr__pfet_g5v0d10v5#body = 2.100000e+00
m.xm17.msky130_fd_pr__pfet_g5v0d10v5#dbody = 2.100000e+00
m.xm17.msky130_fd_pr__pfet_g5v0d10v5#sbody = 2.100000e+00
m.xm18.msky130_fd_pr__nfet_g5v0d10v5#body = 1.617516e-11
m.xm18.msky130_fd_pr__nfet_g5v0d10v5#dbody = 4.043767e-11
m.xm18.msky130_fd_pr__nfet_g5v0d10v5#sbody = 8.087589e-12
m.xm19.msky130_fd_pr__nfet_g5v0d10v5#body = 1.268906e-11
m.xm19.msky130_fd_pr__nfet_g5v0d10v5#dbody = 3.082360e-11
m.xm19.msky130_fd_pr__nfet_g5v0d10v5#sbody = 7.243561e-12
m.xm20.msky130_fd_pr__nfet_g5v0d10v5#body = 1.167046e-11
m.xm20.msky130_fd_pr__nfet_g5v0d10v5#dbody = 2.917613e-11
m.xm20.msky130_fd_pr__nfet_g5v0d10v5#sbody = 5.835234e-12
m.xm22.msky130_fd_pr__nfet_g5v0d10v5#body = 4.495443e-13
m.xm22.msky130_fd_pr__nfet_g5v0d10v5#dbody = 1.123860e-12
m.xm22.msky130_fd_pr__nfet_g5v0d10v5#sbody = 2.247733e-13
m.xm24.msky130_fd_pr__pfet_g5v0d10v5#body = 2.100000e+00
m.xm24.msky130_fd_pr__pfet_g5v0d10v5#dbody = 2.100000e+00
m.xm24.msky130_fd_pr__pfet_g5v0d10v5#sbody = 2.100000e+00
m.xm26.msky130_fd_pr__pfet_g5v0d10v5#body = 2.100000e+00
m.xm26.msky130Note: Starting true gmin stepping
Trying gmin =   1.0000E-03 Note: One successful gmin step
Trying gmin =   1.0000E-04 Note: One successful gmin step
Trying gmin =   1.0000E-05 Note: One successful gmin step
Trying gmin =   1.0000E-06 Note: One successful gmin step
Trying gmin =   1.0000E-07 Note: One successful gmin step
Trying gmin =   1.0000E-08 Warning: Further gmin increment
Trying gmin =   5.6234E-08 Note: One successful gmin step
Trying gmin =   2.3714E-08 Warning: Further gmin increment
Trying gmin =   4.5316E-08 Warning: Further gmin increment
Trying gmin =   5.3280E-08 Warning: Further gmin increment
Trying gmin =   5.5481E-08 Note: One successful gmin step
Trying gmin =   5.4369E-08 Note: One successful gmin step
Trying gmin =   5.3280E-08 Note: One successful gmin step
Trying gmin =   5.1687E-08 Note: One successful gmin step
Trying gmin =   4.9386E-08 Note: One successful gmin step
Trying gmin =   4.6125E-08 Note: One successful gmin step
Trying gmin =   4.1634E-08 Note: One successful gmin step
Trying gmin =   3.5703E-08 Note: One successful gmin step
Trying gmin =   2.8352E-08 Note: One successful gmin step
Trying gmin =   2.0064E-08 Note: One successful gmin step
Trying gmin =   1.1944E-08 Note: One successful gmin step
Trying gmin =   5.4864E-09 Note: One successful gmin step
Trying gmin =   1.7079E-09 Note: One successful gmin step
Trying gmin =   2.9664E-10 Note: One successful gmin step
Trying gmin =   2.9664E-11 Note: One successful gmin step
Trying gmin =   2.9664E-12 Note: One successful gmin step
Trying gmin =   1.0000E-12 Note: One successful gmin step
Note: True gmin stepping completed
_fd_pr__pfet_g5v0d10v5#dbody = 2.100000e+00
m.xm26.msky130_fd_pr__pfet_g5v0d10v5#sbody = 2.100000e+00
mir = 9.169792e-01
net1 = 6.146429e-01
net2 = 1.181368e+00
net3 = 6.152658e-01
net4 = 3.595773e-02
net5 = 9.791584e-01
net6 = 9.134018e-01
net7 = 6.147353e-01
net8 = 9.692753e-01
net9 = 1.199480e+00
net10 = 8.900648e-04
net11 = 1.294002e+00
net12 = 1.294002e+00
net13 = 0.000000e+00
out = 1.294002e+00
pos = 6.255459e-01
q.xq2.qsky130_fd_pr__pnp_05v5_w0p68l0p68#collcx = 4.124679e-07
q.xq3.qsky130_fd_pr__pnp_05v5_w0p68l0p68#collcx = 4.020461e-07
q.xq4.qsky130_fd_pr__pnp_05v5_w0p68l0p68#collcx = 4.020461e-07
q.xq8.qsky130_fd_pr__pnp_05v5_w0p68l0p68#collcx = 4.020461e-07
q.xq10.qsky130_fd_pr__pnp_05v5_w0p68l0p68#collcx = 4.020461e-07
q.xq12.qsky130_fd_pr__pnp_05v5_w0p68l0p68#collcx = 4.020461e-07
q.xq14.qsky130_fd_pr__pnp_05v5_w0p68l0p68#collcx = 4.020461e-07
q.xq16.qsky130_fd_pr__pnp_05v5_w0p68l0p68#collcx = 4.020461e-07
q.xq18.qsky130_fd_pr__pnp_05v5_w0p68l0p68#collcx = 4.020461e-07
vb = 9.336347e-01
vdd = 2.100000e+00
vs#branch = -8.26845e-05
vt#branch = 0.000000e+00
xc1.a = 0.000000e+00
xc1.b1 = 0.000000e+00
xc3.a = 1.294002e+00
xc3.b1 = 1.294002e+00
xr1.xsky130_fd_pr__res_xhigh_po_0p69.ra = 6.161545e-01
xr2.xsky130_fd_pr__res_xhigh_po_0p69.ra = 6.166850e-01
xr3.xsky130_fd_pr__res_xhigh_po_0p69.ra = 1.454750e-03
xr4.xsky130_fd_pr__res_xhigh_po_0p69.ra = 6.146444e-01
xr5.xsky130_fd_pr__res_xhigh_po_0p69.ra = 1.453434e-03
xr6.xsky130_fd_pr__res_xhigh_po_0p69.ra = 1.472991e-03
xr7.xsky130_fd_pr__res_xhigh_po_0p69.ra = 1.294002e+00
xr8.xsky130_fd_pr__res_xhigh_po_0p69.ra = 6.280712e-01
xr9.xsky130_fd_pr__res_xhigh_po_0p69.ra = 2.580364e-03
Doing analysis at TEMP = 0.000000 and TNOM = 27.000000


No. of Data Rows : 91
Note: Starting true gmin stepping
Trying gmin =   1.0000E-03 Note: One successful gmin step
Trying gmin =   1.0000E-04 Note: One successful gmin step
Trying gmin =   1.0000E-05 Note: One successful gmin step
Trying gmin =   1.0000E-06 Note: One successful gmin step
Trying gmin =   1.0000E-07 Note: One successful gmin step
Trying gmin =   1.0000E-08 Warning: Further gmin increment
Trying gmin =   5.6234E-08 Note: One successful gmin step
Trying gmin =   2.3714E-08 Warning: Further gmin increment
Trying gmin =   4.5316E-08 Warning: Further gmin increment
Trying gmin =   5.3280E-08 Warning: Further gmin increment
Trying gmin =   5.5481E-08 Note: One successful gmin step
Trying gmin =   5.4369E-08 Note: One successful gmin step
Trying gmin =   5.3280E-08 Note: One successful gmin step
Trying gmin =   5.1687E-08 Note: One successful gmin step
Trying gmin =   4.9386E-08 Note: One successful gmin step
Trying gmin =   4.6125E-08 Note: One successful gmin step
Trying gmin =   4.1634E-08 Note: One successful gmin step
Trying gmin =   3.5703E-08 Note: One successful gmin step
Trying gmin =   2.8352E-08 Note: One successful gmin step
Trying gmin =   2.0064E-08 Note: One successful gmin step
Trying gmin =   1.1944E-08 Note: One successful gmin step
Trying gmin =   5.4864E-09 Note: One successful gmin step
Trying gmin =   1.7079E-09 Note: One successful gmin step
Trying gmin =   2.9664E-10 Note: One successful gmin step
Trying gmin =   2.9664E-11 Note: One successful gmin step
Trying gmin =   2.9664E-12 Note: One successful gmin step
Trying gmin =   1.0000E-12 Note: One successful gmin step
Note: True gmin stepping completed
 Reference value :  1.00000e+00Note: Starting true gmin stepping
Trying gmin =   1.0000E-03 Note: One successful gmin step
Trying gmin =   1.0000E-04 Note: One successful gmin step
Trying gmin =   1.0000E-05 Note: One successful gmin step
Trying gmin =   1.0000E-06 Note: One successful gmin step
Trying gmin =   1.0000E-07 Note: One successful gmin step
Trying gmin =   1.0000E-08 Warning: Further gmin increment
Trying gmin =   5.6234E-08 Note: One successful gmin step
Trying gmin =   2.3714E-08 Warning: Further gmin increment
Trying gmin =   4.5316E-08 Warning: Further gmin increment
Trying gmin =   5.3280E-08 Warning: Further gmin increment
Trying gmin =   5.5481E-08 Note: One successful gmin step
Trying gmin =   5.4369E-08 Note: One successful gmin step
Trying gmin =   5.2743E-08 Warning: Further gmin increment
Trying gmin =   5.3958E-08 Note: One successful gmin step
Trying gmin =   5.3347E-08 Note: One successful gmin step
Trying gmin =   5.3044E-08 Note: One successful gmin step
Trying gmin =   5.2593E-08 Note: One successful gmin step
Trying gmin =   5.1924E-08 Note: One successful gmin step
Trying gmin =   5.0936E-08 Note: One successful gmin step
Trying gmin =   4.9490E-08 Note: One successful gmin step
Trying gmin =   4.7396E-08 Note: One successful gmin step
Trying gmin =   4.4421E-08 Warning: Further gmin increment
Trying gmin =   4.6634E-08 Note: One successful gmin step
Trying gmin =   4.5514E-08 Note: One successful gmin step
Trying gmin =   4.3884E-08 Warning: Further gmin increment
Trying gmin =   4.5101E-08 Note: One successful gmin step
Trying gmin =   4.4488E-08 Warning: Further gmin increment
Trying gmin =   4.4947E-08 Warning: Further gmin increment
Trying gmin =   4.5062E-08 Note: One successful gmin step
Trying gmin =   4.5005E-08 Warning: Further gmin increment
Trying gmin =   4.5048E-08 Note: One successful gmin step
Trying gmin =   4.5026E-08 Note: One successful gmin step
Trying gmin =   4.4994E-08 Warning: Further gmin increment
Trying gmin =   4.5018E-08 Warning: Further gmin increment
Trying gmin =   4.5024E-08 Note: One successful gmin step
Trying gmin =   4.5021E-08 Note: One successful gmin step
Trying gmin =   4.5017E-08 Warning: Further gmin increment
Trying gmin =   4.5020E-08 Note: One successful gmin step
Trying gmin =   4.5018E-08 Note: One successful gmin step
Trying gmin =   4.5016E-08 Warning: Further gmin increment
Trying gmin =   4.5018E-08 Warning: Last gmin step failed
Warning: True gmin stepping failed
Note: Starting dynamic gmin stepping
Trying gmin =   1.0000E-03 Note: One successful gmin step
Trying gmin =   1.0000E-04 Note: One successful gmin step
Trying gmin =   1.0000E-05 Warning: Further gmin increment
Trying gmin =   5.6234E-05 Note: One successful gmin step
Trying gmin =   2.3714E-05 Note: One successful gmin step
Trying gmin =   6.4938E-06 Warning: Further gmin increment
Trying gmin =   1.7154E-05 Note: One successful gmin step
Trying gmin =   1.0554E-05 Warning: Further gmin increment
Trying gmin =   1.5193E-05 Note: One successful gmin step
Trying gmin =   1.2663E-05 Warning: Further gmin increment
Trying gmin =   1.4517E-05 Note: One successful gmin step
Trying gmin =   1.3558E-05 Note: One successful gmin step
Trying gmin =   1.2238E-05 Warning: Further gmin increment
Trying gmin =   1.3215E-05 Note: One successful gmin step
Trying gmin =   1.2717E-05 Note: One successful gmin step
Trying gmin =   1.2005E-05 Note: One successful gmin step
Trying gmin =   1.1011E-05 Note: One successful gmin step
Trying gmin =   9.6718E-06 Note: One successful gmin step
Trying gmin =   7.9623E-06 Note: One successful gmin step
Trying gmin =   5.9475E-06 Note: One successful gmin step
Trying gmin =   3.8395E-06 Warning: Further gmin increment
Trying gmin =   5.3311E-06 Note: One successful gmin step
Trying gmin =   4.5243E-06 Note: One successful gmin step
Trying gmin =   3.5370E-06 Note: One successful gmin step
Trying gmin =   2.4450E-06 Note: One successful gmin step
Trying gmin =   1.4052E-06 Note: One successful gmin step
Trying gmin =   6.1224E-07 Note: One successful gmin step
Trying gmin =   1.7608E-07 Warning: Further gmin increment
Trying gmin =   4.4835E-07 Note: One successful gmin step
Trying gmin =   2.8097E-07 Note: One successful gmin step
Trying gmin =   1.3939E-07 Warning: Further gmin increment
Trying gmin =   2.3580E-07 Warning: Further gmin increment
Trying gmin =   2.6893E-07 Note: One successful gmin step
Trying gmin =   2.5182E-07 Note: One successful gmin step
Trying gmin =   2.2818E-07 Warning: Further gmin increment
Trying gmin =   2.4569E-07 Warning: Further gmin increment
Trying gmin =   2.5027E-07 Note: One successful gmin step
Trying gmin =   2.4797E-07 Note: One successful gmin step
Trying gmin =   2.4456E-07 Warning: Further gmin increment
Trying gmin =   2.4711E-07 Warning: Further gmin increment
Trying gmin =   2.4776E-07 Note: One successful gmin step
Trying gmin =   2.4744E-07 Warning: Further gmin increment
Trying gmin =   2.4768E-07 Note: One successful gmin step
Trying gmin =   2.4756E-07 Note: One successful gmin step
Trying gmin =   2.4737E-07 Warning: Further gmin increment
Trying gmin =   2.4751E-07 Warning: Further gmin increment
Trying gmin =   2.4754E-07 Note: One successful gmin step
Trying gmin =   2.4753E-07 Note: One successful gmin step
Trying gmin =   2.4750E-07 Warning: Further gmin increment
Trying gmin =   2.4752E-07 Note: One successful gmin step
Trying gmin =   2.4751E-07 Warning: Last gmin step failed
Warning: Dynamic gmin stepping failed
Note: Starting source stepping
Supplies reduced to   0.0000% Note: One successful source step
Supplies reduced to   0.1000% Note: One successful source step
Supplies reduced to   0.2000% Note: One successful source step
Supplies reduced to   0.3500% Note: One successful source step
Supplies reduced to   0.5750% Note: One successful source step
Supplies reduced to   0.9125% Note: One successful source step
Supplies reduced to   1.4188% Note: One successful source step
Supplies reduced to   2.1781% Note: One successful source step
Supplies reduced to   3.3172% Note: One successful source step
Supplies reduced to   5.0258% Note: One successful source step
Supplies reduced to   7.5887% Note: One successful source step
Supplies reduced to  11.4330% Note: One successful source step
Supplies reduced to  17.1995% Note: One successful source step
Supplies reduced to  25.8493% Note: One successful source step
Supplies reduced to  38.8239% Supplies reduced to  25.8493% Note: One successful source step
Supplies reduced to  26.8493% Note: One successful source step
Supplies reduced to  28.3493% Note: One successful source step
Supplies reduced to  29.8493% Note: One successful source step
Supplies reduced to  32.0993% Note: One successful source step
Supplies reduced to  35.4743% Note: One successful source step
Supplies reduced to  40.5368% Note: One successful source step
Supplies reduced to  48.1305% Supplies reduced to  40.5368% Note: One successful source step
Supplies reduced to  41.5368% Note: One successful source step
Supplies reduced to  43.0368% Note: One successful source step
Supplies reduced to  45.2868% Note: One successful source step
Supplies reduced to  48.6618% Note: One successful source step
Supplies reduced to  53.7243% Note: One successful source step
Supplies reduced to  61.3180% Note: One successful source step
Supplies reduced to  72.7086% Note: One successful source step
Supplies reduced to  89.7946% Note: One successful source step
Supplies reduced to 100.0000% Note: One successful source step
Note: Source stepping completed
 Reference value :  2.80000e+00Note: Starting true gmin stepping
Trying gmin =   1.0000E-03 Note: One successful gmin step
Trying gmin =   1.0000E-04 Note: One successful gmin step
Trying gmin =   1.0000E-05 Note: One successful gmin step
Trying gmin =   1.0000E-06 Note: One successful gmin step
Trying gmin =   1.0000E-07 Note: One successful gmin step
Trying gmin =   1.0000E-08 Note: One successful gmin step
Trying gmin =   1.0000E-09 Note: One successful gmin step
Trying gmin =   1.0000E-10 Note: One successful gmin step
Trying gmin =   1.0000E-11 Note: One successful gmin step
Trying gmin =   1.0000E-12 Note: One successful gmin step
Trying gmin =   1.0000E-12 Note: One successful gmin step
Note: True gmin stepping completed
 Reference value :  1.32000e+00Note: Starting true gmin stepping
Trying gmin =   1.0000E-03 Note: One successful gmin step
Trying gmin =   1.0000E-04 Note: One successful gmin step
Trying gmin =   1.0000E-05 Note: One successful gmin step
Trying gmin =   1.0000E-06 Note: One successful gmin step
Trying gmin =   1.0000E-07 Note: One successful gmin step
Trying gmin =   1.0000E-08 Note: One successful gmin step
Trying gmin =   3.1623E-09 Note: One successful gmin step
Trying gmin =   5.6234E-10 Warning: Further gmin increment
Trying gmin =   2.0535E-09 Note: One successful gmin step
Trying gmin =   1.0746E-09 Note: One successful gmin step
Trying gmin =   4.0679E-10 Note: One successful gmin step
Trying gmin =   9.4746E-11 Warning: Further gmin increment
Trying gmin =   2.8260E-10 Warning: Further gmin increment
Trying gmin =   3.7138E-10 Note: One successful gmin step
Trying gmin =   3.2396E-10 Note: One successful gmin step
Trying gmin =   2.6394E-10 Warning: Further gmin increment
Trying gmin =   3.0779E-10 Note: One successful gmin step
Trying gmin =   2.8502E-10 Warning: Further gmin increment
Trying gmin =   3.0193E-10 Note: One successful gmin step
Trying gmin =   2.9336E-10 Note: One successful gmin step
Trying gmin =   2.8095E-10 Warning: Further gmin increment
Trying gmin =   2.9020E-10 Note: One successful gmin step
Trying gmin =   2.8554E-10 Note: One successful gmin step
Trying gmin =   2.7868E-10 Note: One successful gmin step
Trying gmin =   2.7198E-10 Note: One successful gmin step
Trying gmin =   2.6224E-10 Note: One successful gmin step
Trying gmin =   2.4828E-10 Note: One successful gmin step
Trying gmin =   2.2872E-10 Note: One successful gmin step
Trying gmin =   2.0224E-10 Note: One successful gmin step
Trying gmin =   1.6814E-10 Note: One successful gmin step
Trying gmin =   1.2747E-10 Note: One successful gmin step
Trying gmin =   8.4140E-11 Note: One successful gmin step
Trying gmin =   4.5122E-11 Note: One successful gmin step
Trying gmin =   1.7720E-11 Note: One successful gmin step
Trying gmin =   4.3612E-12 Note: One successful gmin step
Trying gmin =   1.0000E-12 Note: One successful gmin step
Note: True gmin stepping completed
 Reference value :  1.30000e+00Note: Starting true gmin stepping
Trying gmin =   1.0000E-03 Note: One successful gmin step
Trying gmin =   1.0000E-04 Note: One successful gmin step
Trying gmin =   1.0000E-05 Note: One successful gmin step
Trying gmin =   1.0000E-06 Note: One successful gmin step
Trying gmin =   1.0000E-07 Note: One successful gmin step
Trying gmin =   1.0000E-08 Note: One successful gmin step
Trying gmin =   1.0000E-09 Note: One successful gmin step
Trying gmin =   1.0000E-10 Warning: Further gmin increment
Trying gmin =   5.6234E-10 Note: One successful gmin step
Trying gmin =   2.3714E-10 Note: One successful gmin step
Trying gmin =   6.4938E-11 Warning: Further gmin increment
Trying gmin =   1.7154E-10 Warning: Further gmin increment
Trying gmin =   2.1870E-10 Note: One successful gmin step
Trying gmin =   1.9369E-10 Warning: Further gmin increment
Trying gmin =   2.1216E-10 Note: One successful gmin step
Trying gmin =   2.0271E-10 Note: One successful gmin step
Trying gmin =   1.8933E-10 Note: One successful gmin step
Trying gmin =   1.7089E-10 Note: One successful gmin step
Trying gmin =   1.4655E-10 Note: One successful gmin step
Trying gmin =   1.1638E-10 Note: One successful gmin step
Trying gmin =   8.2357E-11 Note: One successful gmin step
Trying gmin =   4.9029E-11 Note: One successful gmin step
Trying gmin =   2.2520E-11 Note: One successful gmin step
Trying gmin =   7.0105E-12 Note: One successful gmin step
Trying gmin =   1.2176E-12 Note: One successful gmin step
Trying gmin =   1.0000E-12 Note: One successful gmin step
Note: True gmin stepping completed
 Reference value :  1.28000e+00pm                  =  8.543249e+01
Doing analysis at TEMP = 0.000000 and TNOM = 27.000000


No. of Data Rows : 91
psrr100             =  -3.120116e+01
psrr100k            =  -4.115189e+00
Doing analysis at TEMP = 0.000000 and TNOM = 27.000000


No. of Data Rows : 86
temp_coeff = 1.577726e+02
Doing analysis at TEMP = 0.000000 and TNOM = 27.000000


No. of Data Rows : 141
vldo_sup_2          =  1.797552e+00
vldo_sup_2_8        =  1.796508e+00
line_reg = 1.305000e-03
Note: No ".plot", ".print", or ".fourier" lines; no simulations run
vin                 =  1.764121e+00
dropout = 1.210000e-04
