 Reference value :  0.00000e+00
No compatibility mode selected!


Circuit: * ldo netlist 

Doing analysis at TEMP = 85.000000 and TNOM = 27.000000


No. of Data Rows : 1
bg_out = 1.197311e+00
inn = 1.140814e+00
inp = 1.140781e+00
l1#branch = 0.000000e+00
ldo_out = 1.801726e+00
m.xm1.msky130_fd_pr__nfet_g5v0d10v5#body = 2.702035e-11
m.xm1.msky130_fd_pr__nfet_g5v0d10v5#dbody = 4.930757e-11
m.xm1.msky130_fd_pr__nfet_g5v0d10v5#sbody = 3.175348e-11
m.xm2.msky130_fd_pr__pfet_g5v0d10v5#body = 2.100000e+00
m.xm2.msky130_fd_pr__pfet_g5v0d10v5#dbody = 2.100000e+00
m.xm2.msky130_fd_pr__pfet_g5v0d10v5#sbody = 2.100000e+00
m.xm3.msky130_fd_pr__pfet_g5v0d10v5#body = 2.100000e+00
m.xm3.msky130_fd_pr__pfet_g5v0d10v5#dbody = 2.100000e+00
m.xm3.msky130_fd_pr__pfet_g5v0d10v5#sbody = 2.100000e+00
m.xm4.msky130_fd_pr__pfet_g5v0d10v5#body = 2.100000e+00
m.xm4.msky130_fd_pr__pfet_g5v0d10v5#dbody = 2.100000e+00
m.xm4.msky130_fd_pr__pfet_g5v0d10v5#sbody = 2.100000e+00
m.xm5.msky130_fd_pr__pfet_g5v0d10v5#body = 2.100000e+00
m.xm5.msky130_fd_pr__pfet_g5v0d10v5#dbody = 2.100000e+00
m.xm5.msky130_fd_pr__pfet_g5v0d10v5#sbody = 2.100000e+00
m.xm6.msky130_fd_pr__nfet_g5v0d10v5#body = 1.934875e-11
m.xm6.msky130_fd_pr__nfet_g5v0d10v5#dbody = 4.837176e-11
m.xm6.msky130_fd_pr__nfet_g5v0d10v5#sbody = 9.674492e-12
m.xm7.msky130_fd_pr__pfet_g5v0d10v5#body = 2.100000e+00
m.xm7.msky130_fd_pr__pfet_g5v0d10v5#dbody = 2.100000e+00
m.xm7.msky130_fd_pr__pfet_g5v0d10v5#sbody = 2.100000e+00
m.xm8.msky130_fd_pr__pfet_g5v0d10v5#body = 2.100000e+00
m.xm8.msky130_fd_pr__pfet_g5v0d10v5#dbody = 2.100000e+00
m.xm8.msky130_fd_pr__pfet_g5v0d10v5#sbody = 2.100000e+00
m.xm9.msky130_fd_pr__nfet_g5v0d10v5#body = 2.525918e-11
m.xm9.msky130_fd_pr__nfet_g5v0d10v5#dbody = 4.753866e-11
m.xm9.msky130_fd_pr__nfet_g5v0d10v5#sbody = 2.823887e-11
m.xm10.msky130_fd_pr__nfet_g5v0d10v5#body = 2.522303e-11
m.xm10.msky130_fd_pr__nfet_g5v0d10v5#dbody = 4.744828e-11
m.xm10.msky130_fd_pr__nfet_g5v0d10v5#sbody = 2.822079e-11
m.xm11.msky130_fd_pr__pfet_g5v0d10v5#body = 2.100000e+00
m.xm11.msky130_fd_pr__pfet_g5v0d10v5#dbody = 2.100000e+00
m.xm11.msky130_fd_pr__pfet_g5v0d10v5#sbody = 2.100000e+00
m.xm12.msky130_fd_pr__pfet_g5v0d10v5#body = 2.100000e+00
m.xm12.msky130_fd_pr__pfet_g5v0d10v5#dbody = 2.100000e+00
m.xm12.msky130_fd_pr__pfet_g5v0d10v5#sbody = 2.100000e+00
m.xm13.msky130_fd_pr__nfet_g5v0d10v5#body = 6.156962e-12
m.xm13.msky130_fd_pr__nfet_g5v0d10v5#dbody = 1.539233e-11
m.xm13.msky130_fd_pr__nfet_g5v0d10v5#sbody = 3.078552e-12
m.xm14.msky130_fd_pr__pfet_g5v0d10v5#body = 2.100000e+00
m.xm14.msky130_fd_pr__pfet_g5v0d10v5#dbody = 2.100000e+00
m.xm14.msky130_fd_pr__pfet_g5v0d10v5#sbody = 2.100000e+00
m.xm15.msky130_fd_pr__nfet_g5v0d10v5#body = 3.631764e-15
m.xm15.msky130_fd_pr__nfet_g5v0d10v5#dbody = 9.079123e-15
m.xm15.msky130_fd_pr__nfet_g5v0d10v5#sbody = 1.816170e-15
m.xm16.msky130_fd_pr__nfet_g5v0d10v5#body = 5.101279e-11
m.xm16.msky130_fd_pr__nfet_g5v0d10v5#dbody = 8.850900e-11
m.xm16.msky130_fd_pr__nfet_g5v0d10v5#sbody = 6.452936e-11
m.xm17.msky130_fd_pr__pfet_g5v0d10v5#body = 2.100000e+00
m.xm17.msky130_fd_pr__pfet_g5v0d10v5#dbody = 2.100000e+00
m.xm17.msky130_fd_pr__pfet_g5v0d10v5#sbody = 2.100000e+00
m.xm18.msky130_fd_pr__nfet_g5v0d10v5#body = 9.865500e-12
m.xm18.msky130_fd_pr__nfet_g5v0d10v5#dbody = 2.466367e-11
m.xm18.msky130_fd_pr__nfet_g5v0d10v5#sbody = 4.932826e-12
m.xm19.msky130_fd_pr__nfet_g5v0d10v5#body = 2.706072e-11
m.xm19.msky130_fd_pr__nfet_g5v0d10v5#dbody = 4.940849e-11
m.xm19.msky130_fd_pr__nfet_g5v0d10v5#sbody = 3.177366e-11
m.xm20.msky130_fd_pr__nfet_g5v0d10v5#body = 1.275827e-11
m.xm20.msky130_fd_pr__nfet_g5v0d10v5#dbody = 3.189560e-11
m.xm20.msky130_fd_pr__nfet_g5v0d10v5#sbody = 6.379213e-12
m.xm22.msky130_fd_pr__nfet_g5v0d10v5#body = 1.241696e-11
m.xm22.msky130_fd_pr__nfet_g5v0d10v5#dbody = 3.104228e-11
m.xm22.msky130_fd_pr__nfet_g5v0d10v5#sbody = 6.208592e-12
m.xm24.msky130_fd_pr__pfet_g5v0d10v5#body = 2.100000e+00
m.xm24.msky130_fd_pr__pfet_g5v0d10v5#dbody = 2.100000e+00
m.xm24.msky130_fd_pr__pfet_g5v0d10v5#sbody = 2.100000e+00
m.xm26.msky130_fd_pr__pfet_g5v0d10v5#body = 2.100000e+00
m.xm26.msky130_fd_pr__pfet_g5v0d10v5#dbody = 2.100000e+00
m.xm26.msky130_fd_pr__pfet_g5v0d10v5#sbody = 2.100000e+00
mir = 1.011792e+00
net1 = 6.240939e-01
net2 = 7.020416e-06
net3 = 6.981347e-01
net4 = 3.096657e-01
net5 = 1.015021e+00
net6 = 8.641475e-01
net7 = 6.981006e-01
net8 = 1.105189e+00
net9 = 1.108081e+00
net10 = 3.361005e-01
net11 = 6.327770e-01
net12 = 6.327770e-01
net13 = 0.000000e+00
out = 6.327770e-01
pos = 1.197349e+00
q.xq2.qsky130_fd_pr__pnp_05v5_w0p68l0p68#collcx = 3.166449e-03
q.xq3.qsky130_fd_pr__pnp_05v5_w0p68l0p68#collcx = 3.985388e-04
q.xq4.qsky130_fd_pr__pnp_05v5_w0p68l0p68#collcx = 3.985388e-04
q.xq8.qsky130_fd_pr__pnp_05v5_w0p68l0p68#collcx = 3.985388e-04
q.xq10.qsky130_fd_pr__pnp_05v5_w0p68l0p68#collcx = 3.985388e-04
q.xq12.qsky130_fd_pr__pnp_05v5_w0p68l0p68#collcx = 3.985388e-04
q.xq14.qsky130_fd_pr__pnp_05v5_w0p68l0p68#collcx = 3.985388e-04
q.xq16.qsky130_fd_pr__pnp_05v5_w0p68l0p68#collcx = 3.985388e-04
q.xq18.qsky130_fd_pr__pnp_05v5_w0p68l0p68#collcx = 3.985388e-04
vb = 8.641985e-01
vdd = 2.100000e+00
vs#branch = -1.00239e-01
vt#branch = 0.000000e+00
xc1.a = 0.000000e+00
xc1.b1 = 0.000000e+00
xc3.a = 6.327770e-01
xc3.b1 = 6.327770e-01
xr1.xsky130_fd_pr__res_xhigh_po_0p69.ra = 7.012608e-01
xr2.xsky130_fd_pr__res_xhigh_po_0p69.ra = 7.012949e-01
xr3.xsky130_fd_pr__res_xhigh_po_0p69.ra = 1.873318e-03
xr4.xsky130_fd_pr__res_xhigh_po_0p69.ra = 6.253972e-01
xr5.xsky130_fd_pr__res_xhigh_po_0p69.ra = 1.873221e-03
xr6.xsky130_fd_pr__res_xhigh_po_0p69.ra = 3.345260e-03
xr7.xsky130_fd_pr__res_xhigh_po_0p69.ra = 6.327770e-01
xr8.xsky130_fd_pr__res_xhigh_po_0p69.ra = 1.202907e+00
xr9.xsky130_fd_pr__res_xhigh_po_0p69.ra = 5.829654e-03
Doing analysis at TEMP = 85.000000 and TNOM = 27.000000


No. of Data Rows : 91
Note: Starting true gmin stepping
Trying gmin =   1.0000E-03 Note: One successful gmin step
Trying gmin =   1.0000E-04 Note: One successful gmin step
Trying gmin =   1.0000E-05 Note: One successful gmin step
Trying gmin =   1.0000E-06 Note: One successful gmin step
Trying gmin =   1.0000E-07 Note: One successful gmin step
Trying gmin =   1.0000E-08 Warning: Further gmin increment
Trying gmin =   5.6234E-08 Warning: Further gmin increment
Trying gmin =   8.6596E-08 Note: One successful gmin step
Trying gmin =   6.9783E-08 Note: One successful gmin step
Trying gmin =   5.0481E-08 Warning: Further gmin increment
Trying gmin =   6.4357E-08 Note: One successful gmin step
Trying gmin =   5.6998E-08 Warning: Further gmin increment
Trying gmin =   6.2432E-08 Note: One successful gmin step
Trying gmin =   5.9653E-08 Warning: Further gmin increment
Trying gmin =   6.1726E-08 Note: One successful gmin step
Trying gmin =   6.0681E-08 Warning: Further gmin increment
Trying gmin =   6.1463E-08 Note: One successful gmin step
Trying gmin =   6.1070E-08 Note: One successful gmin step
Trying gmin =   6.0487E-08 Warning: Further gmin increment
Trying gmin =   6.0924E-08 Note: One successful gmin step
Trying gmin =   6.0705E-08 Warning: Further gmin increment
Trying gmin =   6.0869E-08 Note: One successful gmin step
Trying gmin =   6.0787E-08 Note: One successful gmin step
Trying gmin =   6.0664E-08 Warning: Further gmin increment
Trying gmin =   6.0756E-08 Warning: Further gmin increment
Trying gmin =   6.0779E-08 Note: One successful gmin step
Trying gmin =   6.0768E-08 Note: One successful gmin step
Trying gmin =   6.0750E-08 Warning: Further gmin increment
Trying gmin =   6.0763E-08 Note: One successful gmin step
Trying gmin =   6.0757E-08 Note: One successful gmin step
Trying gmin =   6.0747E-08 Warning: Further gmin increment
Trying gmin =   6.0755E-08 Warning: Last gmin step failed
Warning: True gmin stepping failed
Note: Starting dynamic gmin stepping
Trying gmin =   1.0000E-03 Note: One successful gmin step
Trying gmin =   1.0000E-04 Note: One successful gmin step
Trying gmin =   1.0000E-05 Warning: Further gmin increment
Trying gmin =   5.6234E-05 Note: One successful gmin step
Trying gmin =   2.3714E-05 Note: One successful gmin step
Trying gmin =   6.4938E-06 Note: One successful gmin step
Trying gmin =   9.3057E-07 Warning: Further gmin increment
Trying gmin =   3.9954E-06 Note: One successful gmin step
Trying gmin =   1.9282E-06 Note: One successful gmin step
Trying gmin =   6.4647E-07 Note: One successful gmin step
Trying gmin =   1.2550E-07 Warning: Further gmin increment
Trying gmin =   4.2911E-07 Note: One successful gmin step
Trying gmin =   2.3206E-07 Warning: Further gmin increment
Trying gmin =   3.6798E-07 Note: One successful gmin step
Trying gmin =   2.9222E-07 Note: One successful gmin step
Trying gmin =   2.0680E-07 Warning: Further gmin increment
Trying gmin =   2.6802E-07 Warning: Further gmin increment
Trying gmin =   2.8597E-07 Note: One successful gmin step
Trying gmin =   2.7685E-07 Warning: Further gmin increment
Trying gmin =   2.8367E-07 Note: One successful gmin step
Trying gmin =   2.8024E-07 Note: One successful gmin step
Trying gmin =   2.7518E-07 Warning: Further gmin increment
Trying gmin =   2.7896E-07 Warning: Further gmin increment
Trying gmin =   2.7992E-07 Note: One successful gmin step
Trying gmin =   2.7944E-07 Warning: Further gmin increment
Trying gmin =   2.7980E-07 Warning: Further gmin increment
Trying gmin =   2.7989E-07 Note: One successful gmin step
Trying gmin =   2.7985E-07 Note: One successful gmin step
Trying gmin =   2.7978E-07 Warning: Further gmin increment
Trying gmin =   2.7983E-07 Note: One successful gmin step
Trying gmin =   2.7980E-07 Warning: Further gmin increment
Trying gmin =   2.7982E-07 Note: One successful gmin step
Trying gmin =   2.7981E-07 Note: One successful gmin step
Trying gmin =   2.7980E-07 Warning: Further gmin increment
Trying gmin =   2.7981E-07 Warning: Last gmin step failed
Warning: Dynamic gmin stepping failed
Note: Starting source stepping
Supplies reduced to   0.0000% Note: One successful source step
Supplies reduced to   0.1000% Note: One successful source step
Supplies reduced to   0.2000% Note: One successful source step
Supplies reduced to   0.3500% Note: One successful source step
Supplies reduced to   0.5750% Note: One successful source step
Supplies reduced to   0.9125% Note: One successful source step
Supplies reduced to   1.4188% Note: One successful source step
Supplies reduced to   2.1781% Note: One successful source step
Supplies reduced to   3.3172% Note: One successful source step
Supplies reduced to   5.0258% Note: One successful source step
Supplies reduced to   7.5887% Note: One successful source step
Supplies reduced to  11.4330% Note: One successful source step
Supplies reduced to  17.1995% Note: One successful source step
Supplies reduced to  25.8493% Supplies reduced to  17.1995% Note: One successful source step
Supplies reduced to  18.1995% Note: One successful source step
Supplies reduced to  19.6995% Note: One successful source step
Supplies reduced to  21.9495% Supplies reduced to  19.6995% Note: One successful source step
Supplies reduced to  20.0370% Note: One successful source step
Supplies reduced to  20.5433% Note: One successful source step
Supplies reduced to  21.0495% Note: One successful source step
Supplies reduced to  21.8089% Note: One successful source step
Supplies reduced to  22.5683% Note: One successful source step
Supplies reduced to  23.7073% Note: One successful source step
Supplies reduced to  25.4159% Note: One successful source step
Supplies reduced to  27.9788% Note: One successful source step
Supplies reduced to  31.8231% Note: One successful source step
Supplies reduced to  37.5896% Note: One successful source step
Supplies reduced to  46.2394% Note: One successful source step
Supplies reduced to  54.8892% Note: One successful source step
Supplies reduced to  67.8638% Note: One successful source step
Supplies reduced to  87.3257% Note: One successful source step
Supplies reduced to 100.0000% Note: One successful source step
Note: Source stepping completed
 Reference value :  2.80000e+00Note: Starting true gmin stepping
Trying gmin =   1.0000E-03 Note: One successful gmin step
Trying gmin =   1.0000E-04 Note: One successful gmin step
Trying gmin =   1.0000E-05 Note: One successful gmin step
Trying gmin =   1.0000E-06 Note: One successful gmin step
Trying gmin =   1.0000E-07 Note: One successful gmin step
Trying gmin =   1.0000E-08 Note: One successful gmin step
Trying gmin =   3.1623E-09 Note: One successful gmin step
Trying gmin =   5.6234E-10 Note: One successful gmin step
Trying gmin =   5.6234E-11 Note: One successful gmin step
Trying gmin =   5.6234E-12 Note: One successful gmin step
Trying gmin =   1.0000E-12 Note: One successful gmin step
Note: True gmin stepping completed
Note: Starting true gmin stepping
Trying gmin =   1.0000E-03 Note: One successful gmin step
Trying gmin =   1.0000E-04 Note: One successful gmin step
Trying gmin =   1.0000E-05 Note: One successful gmin step
Trying gmin =   1.0000E-06 Note: One successful gmin step
Trying gmin =   1.0000E-07 Note: One successful gmin step
Trying gmin =   1.0000E-08 Note: One successful gmin step
Trying gmin =   3.1623E-09 Note: One successful gmin step
Trying gmin =   5.6234E-10 Note: One successful gmin step
Trying gmin =   5.6234E-11 Note: One successful gmin step
Trying gmin =   5.6234E-12 Note: One successful gmin step
Trying gmin =   1.0000E-12 Note: One successful gmin step
Note: True gmin stepping completed
 Reference value :  1.08000e+00pm                  =  1.041620e+02
Doing analysis at TEMP = 85.000000 and TNOM = 27.000000


No. of Data Rows : 91
psrr100             =  -4.601599e+01
psrr100k            =  -1.977593e+01
Doing analysis at TEMP = 85.000000 and TNOM = 27.000000


No. of Data Rows : 86
temp_coeff = 1.319356e+02
Doing analysis at TEMP = 85.000000 and TNOM = 27.000000


No. of Data Rows : 141
vldo_sup_2          =  1.801055e+00
vldo_sup_2_8        =  1.803499e+00
line_reg = 3.055000e-03
Note: No ".plot", ".print", or ".fourier" lines; no simulations run
vin                 =  1.920251e+00
dropout = 1.562510e-01
