 Reference value :  0.00000e+00
No compatibility mode selected!


Circuit: * ldo netlist 

Doing analysis at TEMP = 85.000000 and TNOM = 27.000000


No. of Data Rows : 1
bg_out = 1.200258e+00
inn = 1.150884e+00
inp = 1.150800e+00
l1#branch = 0.000000e+00
ldo_out = 1.805123e+00
m.xm1.msky130_fd_pr__nfet_g5v0d10v5#body = 2.474448e-11
m.xm1.msky130_fd_pr__nfet_g5v0d10v5#dbody = 4.505486e-11
m.xm1.msky130_fd_pr__nfet_g5v0d10v5#sbody = 2.917859e-11
m.xm2.msky130_fd_pr__pfet_g5v0d10v5#body = 2.100000e+00
m.xm2.msky130_fd_pr__pfet_g5v0d10v5#dbody = 2.100000e+00
m.xm2.msky130_fd_pr__pfet_g5v0d10v5#sbody = 2.100000e+00
m.xm3.msky130_fd_pr__pfet_g5v0d10v5#body = 2.100000e+00
m.xm3.msky130_fd_pr__pfet_g5v0d10v5#dbody = 2.100000e+00
m.xm3.msky130_fd_pr__pfet_g5v0d10v5#sbody = 2.100000e+00
m.xm4.msky130_fd_pr__pfet_g5v0d10v5#body = 2.100000e+00
m.xm4.msky130_fd_pr__pfet_g5v0d10v5#dbody = 2.100000e+00
m.xm4.msky130_fd_pr__pfet_g5v0d10v5#sbody = 2.100000e+00
m.xm5.msky130_fd_pr__pfet_g5v0d10v5#body = 2.100000e+00
m.xm5.msky130_fd_pr__pfet_g5v0d10v5#dbody = 2.100000e+00
m.xm5.msky130_fd_pr__pfet_g5v0d10v5#sbody = 2.100000e+00
m.xm6.msky130_fd_pr__nfet_g5v0d10v5#body = 2.025051e-11
m.xm6.msky130_fd_pr__nfet_g5v0d10v5#dbody = 5.062616e-11
m.xm6.msky130_fd_pr__nfet_g5v0d10v5#sbody = 1.012536e-11
m.xm7.msky130_fd_pr__pfet_g5v0d10v5#body = 2.100000e+00
m.xm7.msky130_fd_pr__pfet_g5v0d10v5#dbody = 2.100000e+00
m.xm7.msky130_fd_pr__pfet_g5v0d10v5#sbody = 2.100000e+00
m.xm8.msky130_fd_pr__pfet_g5v0d10v5#body = 2.100000e+00
m.xm8.msky130_fd_pr__pfet_g5v0d10v5#dbody = 2.100000e+00
m.xm8.msky130_fd_pr__pfet_g5v0d10v5#sbody = 2.100000e+00
m.xm9.msky130_fd_pr__nfet_g5v0d10v5#body = 2.295276e-11
m.xm9.msky130_fd_pr__nfet_g5v0d10v5#dbody = 4.344908e-11
m.xm9.msky130_fd_pr__nfet_g5v0d10v5#sbody = 2.540919e-11
m.xm10.msky130_fd_pr__nfet_g5v0d10v5#body = 2.297217e-11
m.xm10.msky130_fd_pr__nfet_g5v0d10v5#dbody = 4.349761e-11
m.xm10.msky130_fd_pr__nfet_g5v0d10v5#sbody = 2.541889e-11
m.xm11.msky130_fd_pr__pfet_g5v0d10v5#body = 2.100000e+00
m.xm11.msky130_fd_pr__pfet_g5v0d10v5#dbody = 2.100000e+00
m.xm11.msky130_fd_pr__pfet_g5v0d10v5#sbody = 2.100000e+00
m.xm12.msky130_fd_pr__pfet_g5v0d10v5#body = 2.100000e+00
m.xm12.msky130_fd_pr__pfet_g5v0d10v5#dbody = 2.100000e+00
m.xm12.msky130_fd_pr__pfet_g5v0d10v5#sbody = 2.100000e+00
m.xm13.msky130_fd_pr__nfet_g5v0d10v5#body = 5.319226e-12
m.xm13.msky130_fd_pr__nfet_g5v0d10v5#dbody = 1.329800e-11
m.xm13.msky130_fd_pr__nfet_g5v0d10v5#sbody = 2.659677e-12
m.xm14.msky130_fd_pr__pfet_g5v0d10v5#body = 2.100000e+00
m.xm14.msky130_fd_pr__pfet_g5v0d10v5#dbody = 2.100000e+00
m.xm14.msky130_fd_pr__pfet_g5v0d10v5#sbody = 2.100000e+00
m.xm15.msky130_fd_pr__nfet_g5v0d10v5#body = 1.242728e-15
m.xm15.msky130_fd_pr__nfet_g5v0d10v5#dbody = 3.106764e-15
m.xm15.msky130_fd_pr__nfet_g5v0d10v5#sbody = 6.214204e-16
m.xm16.msky130_fd_pr__nfet_g5v0d10v5#body = 5.124238e-11
m.xm16.msky130_fd_pr__nfet_g5v0d10v5#dbody = 8.872752e-11
m.xm16.msky130_fd_pr__nfet_g5v0d10v5#sbody = 6.499962e-11
m.xm17.msky130_fd_pr__pfet_g5v0d10v5#body = 2.100000e+00
m.xm17.msky130_fd_pr__pfet_g5v0d10v5#dbody = 2.100000e+00
m.xm17.msky130_fd_pr__pfet_g5v0d10v5#sbody = 2.100000e+00
m.xm18.msky130_fd_pr__nfet_g5v0d10v5#body = 5.930264e-12
m.xm18.msky130_fd_pr__nfet_g5v0d10v5#dbody = 1.482559e-11
m.xm18.msky130_fd_pr__nfet_g5v0d10v5#sbody = 2.965197e-12
m.xm19.msky130_fd_pr__nfet_g5v0d10v5#body = 2.484138e-11
m.xm19.msky130_fd_pr__nfet_g5v0d10v5#dbody = 4.529711e-11
m.xm19.msky130_fd_pr__nfet_g5v0d10v5#sbody = 2.922704e-11
m.xm20.msky130_fd_pr__nfet_g5v0d10v5#body = 1.424677e-11
m.xm20.msky130_fd_pr__nfet_g5v0d10v5#dbody = 3.561684e-11
m.xm20.msky130_fd_pr__nfet_g5v0d10v5#sbody = 7.123456e-12
m.xm22.msky130_fd_pr__nfet_g5v0d10v5#body = 1.169688e-11
m.xm22.msky130_fd_pr__nfet_g5v0d10v5#dbody = 2.924210e-11
m.xm22.msky130_fd_pr__nfet_g5v0d10v5#sbody = 5.848544e-12
m.xm24.msky130_fd_pr__pfet_g5v0d10v5#body = 2.100000e+00
m.xm24.msky130_fd_pr__pfet_g5v0d10v5#dbody = 2.100000e+00
m.xm24.msky130_fd_pr__pfet_g5v0d10v5#sbody = 2.100000e+00
m.xm26.msky130_fd_pr__pfet_g5v0d10v5#body = 2.100000e+00
m.xm26.msky130_fd_pr__pfet_g5v0d10v5#dbody = 2.100000e+00
m.xm26.msky130_fd_pr__pfet_g5v0d10v5#sbody = 2.100000e+00
mir = 8.830519e-01
net1 = 6.354095e-01
net2 = 2.394884e-06
net3 = 7.082239e-01
net4 = 2.482433e-01
net5 = 8.908039e-01
net6 = 9.321396e-01
net7 = 7.081381e-01
net8 = 9.880301e-01
net9 = 9.864771e-01
net10 = 2.649822e-01
net11 = 3.138224e-01
net12 = 3.138224e-01
net13 = 0.000000e+00
out = 3.138224e-01
pos = 1.200237e+00
q.xq2.qsky130_fd_pr__pnp_05v5_w0p68l0p68#collcx = 2.687381e-03
q.xq3.qsky130_fd_pr__pnp_05v5_w0p68l0p68#collcx = 3.416291e-04
q.xq4.qsky130_fd_pr__pnp_05v5_w0p68l0p68#collcx = 3.416291e-04
q.xq8.qsky130_fd_pr__pnp_05v5_w0p68l0p68#collcx = 3.416291e-04
q.xq10.qsky130_fd_pr__pnp_05v5_w0p68l0p68#collcx = 3.416291e-04
q.xq12.qsky130_fd_pr__pnp_05v5_w0p68l0p68#collcx = 3.416291e-04
q.xq14.qsky130_fd_pr__pnp_05v5_w0p68l0p68#collcx = 3.416291e-04
q.xq16.qsky130_fd_pr__pnp_05v5_w0p68l0p68#collcx = 3.416291e-04
q.xq18.qsky130_fd_pr__pnp_05v5_w0p68l0p68#collcx = 3.416291e-04
vb = 9.791295e-01
vdd = 2.100000e+00
vs#branch = -1.00414e-01
vt#branch = 0.000000e+00
xc1.a = 0.000000e+00
xc1.b1 = 0.000000e+00
xc3.a = 3.138224e-01
xc3.b1 = 3.138224e-01
xr1.xsky130_fd_pr__res_xhigh_po_0p69.ra = 7.163897e-01
xr2.xsky130_fd_pr__res_xhigh_po_0p69.ra = 7.164756e-01
xr3.xsky130_fd_pr__res_xhigh_po_0p69.ra = 4.956971e-03
xr4.xsky130_fd_pr__res_xhigh_po_0p69.ra = 6.387538e-01
xr5.xsky130_fd_pr__res_xhigh_po_0p69.ra = 4.956335e-03
xr6.xsky130_fd_pr__res_xhigh_po_0p69.ra = 8.740321e-03
xr7.xsky130_fd_pr__res_xhigh_po_0p69.ra = 3.138224e-01
xr8.xsky130_fd_pr__res_xhigh_po_0p69.ra = 1.214768e+00
xr9.xsky130_fd_pr__res_xhigh_po_0p69.ra = 1.524218e-02
Doing analysis at TEMP = 85.000000 and TNOM = 27.000000


No. of Data Rows : 91
Note: Starting true gmin stepping
Trying gmin =   1.0000E-03 Note: One successful gmin step
Trying gmin =   1.0000E-04 Note: One successful gmin step
Trying gmin =   1.0000E-05 Note: One successful gmin step
Trying gmin =   1.0000E-06 Note: One successful gmin step
Trying gmin =   1.0000E-07 Note: One successful gmin step
Trying gmin =   1.0000E-08 Note: One successful gmin step
Trying gmin =   1.0000E-09 Note: One successful gmin step
Trying gmin =   1.0000E-10 Note: One successful gmin step
Trying gmin =   1.0000E-11 Note: One successful gmin step
Trying gmin =   1.0000E-12 Note: One successful gmin step
Trying gmin =   1.0000E-12 Note: One successful gmin step
Note: True gmin stepping completed
 Reference value :  1.20000e+00Note: Starting true gmin stepping
Trying gmin =   1.0000E-03 Note: One successful gmin step
Trying gmin =   1.0000E-04 Note: One successful gmin step
Trying gmin =   1.0000E-05 Note: One successful gmin step
Trying gmin =   1.0000E-06 Note: One successful gmin step
Trying gmin =   1.0000E-07 Note: One successful gmin step
Trying gmin =   1.0000E-08 Note: One successful gmin step
Trying gmin =   1.0000E-09 Note: One successful gmin step
Trying gmin =   3.1623E-10 Note: One successful gmin step
Trying gmin =   5.6234E-11 Note: One successful gmin step
Trying gmin =   5.6234E-12 Note: One successful gmin step
Trying gmin =   1.0000E-12 Note: One successful gmin step
Note: True gmin stepping completed
pm                  =  9.782829e+01
Doing analysis at TEMP = 85.000000 and TNOM = 27.000000


No. of Data Rows : 91
psrr100             =  -4.229667e+01
psrr100k            =  -1.595348e+01
Doing analysis at TEMP = 85.000000 and TNOM = 27.000000


No. of Data Rows : 86
temp_coeff = 1.002446e+02
Doing analysis at TEMP = 85.000000 and TNOM = 27.000000


No. of Data Rows : 141
vldo_sup_2          =  1.779839e+00
vldo_sup_2_8        =  1.807183e+00
line_reg = 3.418000e-02
Note: No ".plot", ".print", or ".fourier" lines; no simulations run
vin                 =  1.985228e+00
dropout = 2.212280e-01
