Note: Starting true gmin stepping
Trying gmin =   1.0000E-03 Note: One successful gmin step
Trying gmin =   1.0000E-04 Note: One successful gmin step
Trying gmin =   1.0000E-05 Note: One successful gmin step
Trying gmin =   1.0000E-06 Note: One successful gmin step
Trying gmin =   1.0000E-07 Note: One successful gmin step
Trying gmin =   1.0000E-08 Warning: Further gmin increment
Trying gmin =   5.6234E-08 Note: One successful gmin step
Trying gmin =   3.1623E-08 Warning: Further gmin increment
Trying gmin =   4.8697E-08 Note: One successful gmin step
Trying gmin =   3.9242E-08 Note: One successful gmin step
Trying gmin =   2.8387E-08 Note: One successful gmin step
Trying gmin =   2.4144E-08 Note: One successful gmin step
Trying gmin =   1.8938E-08 Note: One successful gmin step
Trying gmin =   1.3157E-08 Note: One successful gmin step
Trying gmin =   7.6179E-09 Note: One successful gmin step
Trying gmin =   3.3564E-09 Note: One successful gmin step
Trying gmin =   9.8162E-10 Note: One successful gmin step
Trying gmin =   1.5525E-10 Note: One successful gmin step
Trying gmin =   1.5525E-11 Note: One successful gmin step
Trying gmin =   1.5525E-12 Note: One successful gmin step
Trying gmin =   1.0000E-12 Note: One successful gmin step
Note: True gmin stepping completed
 Reference value :  0.00000e+00
No compatibility mode selected!


Circuit: * ldo netlist 

Doing analysis at TEMP = 0.000000 and TNOM = 27.000000


No. of Data Rows : 1
bg_out = 1.194488e+00
inn = 1.263357e+00
inp = 1.263311e+00
l1#branch = 5.551115e-17
ldo_out = 1.797434e+00
m.xm1.msky130_fd_pr__nfet_g5v0d10v5#body = 1.470762e-11
m.xm1.msky130_fd_pr__nfet_g5v0d10v5#dbody = 3.068595e-11
m.xm1.msky130_fd_pr__nfet_g5v0d10v5#sbody = 1.343692e-11
m.xm2.msky130_fd_pr__pfet_g5v0d10v5#body = 2.100000e+00
m.xm2.msky130_fd_pr__pfet_g5v0d10v5#dbody = 2.100000e+00
m.xm2.msky130_fd_pr__pfet_g5v0d10v5#sbody = 2.100000e+00
m.xm3.msky130_fd_pr__pfet_g5v0d10v5#body = 2.100000e+00
m.xm3.msky130_fd_pr__pfet_g5v0d10v5#dbody = 2.100000e+00
m.xm3.msky130_fd_pr__pfet_g5v0d10v5#sbody = 2.100000e+00
m.xm4.msky130_fd_pr__pfet_g5v0d10v5#body = 2.100000e+00
m.xm4.msky130_fd_pr__pfet_g5v0d10v5#dbody = 2.100000e+00
m.xm4.msky130_fd_pr__pfet_g5v0d10v5#sbody = 2.100000e+00
m.xm5.msky130_fd_pr__pfet_g5v0d10v5#body = 2.100000e+00
m.xm5.msky130_fd_pr__pfet_g5v0d10v5#dbody = 2.100000e+00
m.xm5.msky130_fd_pr__pfet_g5v0d10v5#sbody = 2.100000e+00
m.xm6.msky130_fd_pr__nfet_g5v0d10v5#body = 1.269483e-11
m.xm6.msky130_fd_pr__nfet_g5v0d10v5#dbody = 3.173706e-11
m.xm6.msky130_fd_pr__nfet_g5v0d10v5#sbody = 6.347419e-12
m.xm7.msky130_fd_pr__pfet_g5v0d10v5#body = 2.100000e+00
m.xm7.msky130_fd_pr__pfet_g5v0d10v5#dbody = 2.100000e+00
m.xm7.msky130_fd_pr__pfet_g5v0d10v5#sbody = 2.100000e+00
m.xm8.msky130_fd_pr__pfet_g5v0d10v5#body = 2.100000e+00
m.xm8.msky130_fd_pr__pfet_g5v0d10v5#dbody = 2.100000e+00
m.xm8.msky130_fd_pr__pfet_g5v0d10v5#sbody = 2.100000e+00
m.xm9.msky130_fd_pr__nfet_g5v0d10v5#body = 1.507345e-11
m.xm9.msky130_fd_pr__nfet_g5v0d10v5#dbody = 3.316817e-11
m.xm9.msky130_fd_pr__nfet_g5v0d10v5#sbody = 1.205217e-11
m.xm10.msky130_fd_pr__nfet_g5v0d10v5#body = 1.481626e-11
m.xm10.msky130_fd_pr__nfet_g5v0d10v5#dbody = 3.252520e-11
m.xm10.msky130_fd_pr__nfet_g5v0d10v5#sbody = 1.192358e-11
m.xm11.msky130_fd_pr__pfet_g5v0d10v5#body = 2.100000e+00
m.xm11.msky130_fd_pr__pfet_g5v0d10v5#dbody = 2.100000e+00
m.xm11.msky130_fd_pr__pfet_g5v0d10v5#sbody = 2.100000e+00
m.xm12.msky130_fd_pr__pfet_g5v0d10v5#body = 2.100000e+00
m.xm12.msky130_fd_pr__pfet_g5v0d10v5#dbody = 2.100000e+00
m.xm12.msky130_fd_pr__pfet_g5v0d10v5#sbody = 2.100000e+00
m.xm13.msky130_fd_pr__nfet_g5v0d10v5#body = 2.257704e-12
m.xm13.msky130_fd_pr__nfet_g5v0d10v5#dbody = 5.644251e-12
m.xm13.msky130_fd_pr__nfet_g5v0d10v5#sbody = 1.128862e-12
m.xm14.msky130_fd_pr__pfet_g5v0d10v5#body = 2.100000e+00
m.xm14.msky130_fd_pr__pfet_g5v0d10v5#dbody = 2.100000e+00
m.xm14.msky130_fd_pr__pfet_g5v0d10v5#sbody = 2.100000e+00
m.xm15.msky130_fd_pr__nfet_g5v0d10v5#body = 3.749453e-17
m.xm15.msky130_fd_pr__nfet_g5v0d10v5#dbody = 9.373480e-17
m.xm15.msky130_fd_pr__nfet_g5v0d10v5#sbody = 1.874879e-17
m.xm16.msky130_fd_pr__nfet_g5v0d10v5#body = 4.204208e-11
m.xm16.msky130_fd_pr__nfet_g5v0d10v5#dbody = 7.352116e-11
m.xm16.msky130_fd_pr__nfet_g5v0d10v5#sbody = 5.260509e-11
m.xm17.msky130_fd_pr__pfet_g5v0d10v5#body = 2.100000e+00
m.xm17.msky130_fd_pr__pfet_g5v0d10v5#dbody = 2.100000e+00
m.xm17.msky130_fd_pr__pfet_g5v0d10v5#sbody = 2.100000e+00
m.xm18.msky130_fd_pr__nfet_g5v0d10v5#body = 1.690124e-11
m.xm18.msky130_fd_pr__nfet_g5v0d10v5#dbody = 4.225237e-11
m.xm18.msky130_fd_pr__nfet_g5v0d10v5#sbody = 8.450632e-12
m.xm19.msky130_fd_pr__nfet_g5v0d10v5#body = 1.477495e-11
m.xm19.msky130_fd_pr__nfet_g5v0d10v5#dbody = 3.085425e-11
m.xm19.msky130_fd_pr__nfet_g5v0d10v5#sbody = 1.347058e-11
m.xm20.msky130_fd_pr__nfet_g5v0d10v5#body = 1.332616e-11
m.xm20.msky130_fd_pr__nfet_g5v0d10v5#dbody = 3.331537e-11
m.xm20.msky130_fd_pr__nfet_g5v0d10v5#sbody = 6.663090e-12
m.xm22.msky130_fd_pr__nfet_g5v0d10v5#body = 3.041590e-12
m.xm22.msky130_fd_pr__nfet_g5v0d10v5#dbody = 7.603971e-12
m.xm22.msky130_fd_pr__nfet_g5v0d10v5#sbody = 1.520800e-12
m.xm24.msky130_fd_pr__pfet_g5v0d10v5#body = 2.100000e+00
m.xm24.msky130_fd_pr__pfet_g5v0d10v5#dbody = 2.100000e+00
m.xm24.msky130_fd_pr__pfet_g5v0d10v5#sbody = 2.100000e+00
m.xm26.msky130_fd_pr__pfet_g5v0d10v5#body = 2.100000e+00
m.xm26.msky130Note: Starting true gmin stepping
Trying gmin =   1.0000E-03 Note: One successful gmin step
Trying gmin =   1.0000E-04 Note: One successful gmin step
Trying gmin =   1.0000E-05 Note: One successful gmin step
Trying gmin =   1.0000E-06 Note: One successful gmin step
Trying gmin =   1.0000E-07 Note: One successful gmin step
Trying gmin =   1.0000E-08 Warning: Further gmin increment
Trying gmin =   5.6234E-08 Note: One successful gmin step
Trying gmin =   3.1623E-08 Warning: Further gmin increment
Trying gmin =   4.8697E-08 Note: One successful gmin step
Trying gmin =   3.9242E-08 Note: One successful gmin step
Trying gmin =   2.8387E-08 Note: One successful gmin step
Trying gmin =   2.4144E-08 Note: One successful gmin step
Trying gmin =   1.8938E-08 Note: One successful gmin step
Trying gmin =   1.3157E-08 Note: One successful gmin step
Trying gmin =   7.6179E-09 Note: One successful gmin step
Trying gmin =   3.3564E-09 Note: One successful gmin step
Trying gmin =   9.8162E-10 Note: One successful gmin step
Trying gmin =   1.5525E-10 Note: One successful gmin step
Trying gmin =   1.5525E-11 Note: One successful gmin step
Trying gmin =   1.5525E-12 Note: One successful gmin step
Trying gmin =   1.0000E-12 Note: One successful gmin step
Note: True gmin stepping completed
_fd_pr__pfet_g5v0d10v5#dbody = 2.100000e+00
m.xm26.msky130_fd_pr__pfet_g5v0d10v5#sbody = 2.100000e+00
mir = 9.332807e-01
net1 = 7.710518e-01
net2 = 2.997778e-06
net3 = 8.248069e-01
net4 = 2.433195e-01
net5 = 9.386666e-01
net6 = 1.015578e+00
net7 = 8.247590e-01
net8 = 1.004680e+00
net9 = 1.025255e+00
net10 = 1.806145e-01
net11 = 1.352069e+00
net12 = 1.352069e+00
net13 = 0.000000e+00
out = 1.352069e+00
pos = 1.194693e+00
q.xq2.qsky130_fd_pr__pnp_05v5_w0p68l0p68#collcx = 1.933251e-03
q.xq3.qsky130_fd_pr__pnp_05v5_w0p68l0p68#collcx = 2.434199e-04
q.xq4.qsky130_fd_pr__pnp_05v5_w0p68l0p68#collcx = 2.434199e-04
q.xq8.qsky130_fd_pr__pnp_05v5_w0p68l0p68#collcx = 2.434199e-04
q.xq10.qsky130_fd_pr__pnp_05v5_w0p68l0p68#collcx = 2.434199e-04
q.xq12.qsky130_fd_pr__pnp_05v5_w0p68l0p68#collcx = 2.434199e-04
q.xq14.qsky130_fd_pr__pnp_05v5_w0p68l0p68#collcx = 2.434199e-04
q.xq16.qsky130_fd_pr__pnp_05v5_w0p68l0p68#collcx = 2.434199e-04
q.xq18.qsky130_fd_pr__pnp_05v5_w0p68l0p68#collcx = 2.434199e-04
vb = 1.066090e+00
vdd = 2.100000e+00
vs#branch = -1.75118e-04
vt#branch = 0.000000e+00
xc1.a = 0.000000e+00
xc1.b1 = 0.000000e+00
xc3.a = 1.352069e+00
xc3.b1 = 1.352069e+00
xr1.xsky130_fd_pr__res_xhigh_po_0p69.ra = 8.275370e-01
xr2.xsky130_fd_pr__res_xhigh_po_0p69.ra = 8.275849e-01
xr3.xsky130_fd_pr__res_xhigh_po_0p69.ra = 1.984309e-03
xr4.xsky130_fd_pr__res_xhigh_po_0p69.ra = 7.718923e-01
xr5.xsky130_fd_pr__res_xhigh_po_0p69.ra = 1.984186e-03
xr6.xsky130_fd_pr__res_xhigh_po_0p69.ra = 2.960150e-03
xr7.xsky130_fd_pr__res_xhigh_po_0p69.ra = 1.352069e+00
xr8.xsky130_fd_pr__res_xhigh_po_0p69.ra = 1.199614e+00
xr9.xsky130_fd_pr__res_xhigh_po_0p69.ra = 5.160540e-03
Doing analysis at TEMP = 0.000000 and TNOM = 27.000000


No. of Data Rows : 91
Note: Starting true gmin stepping
Trying gmin =   1.0000E-03 Note: One successful gmin step
Trying gmin =   1.0000E-04 Note: One successful gmin step
Trying gmin =   1.0000E-05 Note: One successful gmin step
Trying gmin =   1.0000E-06 Note: One successful gmin step
Trying gmin =   1.0000E-07 Note: One successful gmin step
Trying gmin =   1.0000E-08 Warning: Further gmin increment
Trying gmin =   5.6234E-08 Note: One successful gmin step
Trying gmin =   3.1623E-08 Warning: Further gmin increment
Trying gmin =   4.8697E-08 Note: One successful gmin step
Trying gmin =   3.9242E-08 Note: One successful gmin step
Trying gmin =   2.8387E-08 Note: One successful gmin step
Trying gmin =   2.4144E-08 Note: One successful gmin step
Trying gmin =   1.8938E-08 Note: One successful gmin step
Trying gmin =   1.3157E-08 Note: One successful gmin step
Trying gmin =   7.6179E-09 Note: One successful gmin step
Trying gmin =   3.3564E-09 Note: One successful gmin step
Trying gmin =   9.8162E-10 Note: One successful gmin step
Trying gmin =   1.5525E-10 Note: One successful gmin step
Trying gmin =   1.5525E-11 Note: One successful gmin step
Trying gmin =   1.5525E-12 Note: One successful gmin step
Trying gmin =   1.0000E-12 Note: One successful gmin step
Note: True gmin stepping completed
 Reference value :  7.40000e+01Note: Starting true gmin stepping
Trying gmin =   1.0000E-03 Note: One successful gmin step
Trying gmin =   1.0000E-04 Note: One successful gmin step
Trying gmin =   1.0000E-05 Note: One successful gmin step
Trying gmin =   1.0000E-06 Note: One successful gmin step
Trying gmin =   1.0000E-07 Warning: Further gmin increment
Trying gmin =   5.6234E-07 Note: One successful gmin step
Trying gmin =   2.3714E-07 Note: One successful gmin step
Trying gmin =   6.4938E-08 Warning: Further gmin increment
Trying gmin =   1.7154E-07 Note: One successful gmin step
Trying gmin =   1.0554E-07 Note: One successful gmin step
Trying gmin =   8.2788E-08 Note: One successful gmin step
Trying gmin =   5.7513E-08 Warning: Further gmin increment
Trying gmin =   7.5582E-08 Note: One successful gmin step
Trying gmin =   6.5931E-08 Warning: Further gmin increment
Trying gmin =   7.3044E-08 Note: One successful gmin step
Trying gmin =   6.9397E-08 Warning: Further gmin increment
Trying gmin =   7.2115E-08 Note: One successful gmin step
Trying gmin =   7.0743E-08 Note: One successful gmin step
Trying gmin =   6.9397E-08 Note: One successful gmin step
Trying gmin =   6.7426E-08 Note: One successful gmin step
Trying gmin =   6.4573E-08 Note: One successful gmin step
Trying gmin =   6.0520E-08 Note: One successful gmin step
Trying gmin =   5.4911E-08 Note: One successful gmin step
Trying gmin =   4.7458E-08 Note: One successful gmin step
Trying gmin =   3.8131E-08 Note: One successful gmin step
Trying gmin =   2.7462E-08 Note: One successful gmin step
Trying gmin =   1.6785E-08 Note: One successful gmin step
Trying gmin =   8.0204E-09 Note: One successful gmin step
Trying gmin =   2.6492E-09 Note: One successful gmin step
Trying gmin =   5.0291E-10 Note: One successful gmin step
Trying gmin =   5.0291E-11 Note: One successful gmin step
Trying gmin =   5.0291E-12 Note: One successful gmin step
Trying gmin =   1.0000E-12 Note: One successful gmin step
Note: True gmin stepping completed
 Reference value :  2.80000e+00Note: Starting true gmin stepping
Trying gmin =   1.0000E-03 Note: One successful gmin step
Trying gmin =   1.0000E-04 Note: One successful gmin step
Trying gmin =   1.0000E-05 Note: One successful gmin step
Trying gmin =   1.0000E-06 Note: One successful gmin step
Trying gmin =   1.0000E-07 Note: One successful gmin step
Trying gmin =   1.0000E-08 Warning: Further gmin increment
Trying gmin =   5.6234E-08 Note: One successful gmin step
Trying gmin =   2.3714E-08 Note: One successful gmin step
Trying gmin =   6.4938E-09 Note: One successful gmin step
Trying gmin =   9.3057E-10 Note: One successful gmin step
Trying gmin =   9.3057E-11 Note: One successful gmin step
Trying gmin =   9.3057E-12 Note: One successful gmin step
Trying gmin =   1.0000E-12 Warning: Further gmin increment
Trying gmin =   5.3280E-12 Warning: Further gmin increment
Trying gmin =   8.0947E-12 Note: One successful gmin step
Trying gmin =   6.5672E-12 Note: One successful gmin step
Trying gmin =   4.7990E-12 Warning: Further gmin increment
Trying gmin =   6.0719E-12 Note: One successful gmin step
Trying gmin =   5.3981E-12 Note: One successful gmin step
Trying gmin =   4.5249E-12 Warning: Further gmin increment
Trying gmin =   5.1651E-12 Note: One successful gmin step
Trying gmin =   4.9422E-12 Note: One successful gmin step
Trying gmin =   4.6258E-12 Note: One successful gmin step
Trying gmin =   4.1887E-12 Note: One successful gmin step
Trying gmin =   3.6093E-12 Note: One successful gmin step
Trying gmin =   2.8870E-12 Note: One successful gmin step
Trying gmin =   2.0652E-12 Note: One successful gmin step
Trying gmin =   1.2495E-12 Note: One successful gmin step
Trying gmin =   1.0000E-12 Note: One successful gmin step
Note: True gmin stepping completed
 Reference value :  1.24000e+00Note: Starting true gmin stepping
Trying gmin =   1.0000E-03 Note: One successful gmin step
Trying gmin =   1.0000E-04 Note: One successful gmin step
Trying gmin =   1.0000E-05 Note: One successful gmin step
Trying gmin =   1.0000E-06 Note: One successful gmin step
Trying gmin =   1.0000E-07 Note: One successful gmin step
Trying gmin =   1.0000E-08 Note: One successful gmin step
Trying gmin =   3.1623E-09 Note: One successful gmin step
Trying gmin =   5.6234E-10 Note: One successful gmin step
Trying gmin =   5.6234E-11 Note: One successful gmin step
Trying gmin =   5.6234E-12 Note: One successful gmin step
Trying gmin =   1.0000E-12 Warning: Further gmin increment
Trying gmin =   3.6517E-12 Warning: Further gmin increment
Trying gmin =   5.0481E-12 Note: One successful gmin step
Trying gmin =   4.2935E-12 Note: One successful gmin step
Trying gmin =   3.3678E-12 Warning: Further gmin increment
Trying gmin =   4.0406E-12 Note: One successful gmin step
Trying gmin =   3.6889E-12 Warning: Further gmin increment
Trying gmin =   3.9496E-12 Note: One successful gmin step
Trying gmin =   3.8607E-12 Note: One successful gmin step
Trying gmin =   3.7311E-12 Note: One successful gmin step
Trying gmin =   3.5448E-12 Note: One successful gmin step
Trying gmin =   3.2826E-12 Note: One successful gmin step
Trying gmin =   2.9253E-12 Note: One successful gmin step
Trying gmin =   2.4608E-12 Note: One successful gmin step
Trying gmin =   1.8987E-12 Note: One successful gmin step
Trying gmin =   1.2868E-12 Note: One successful gmin step
Trying gmin =   1.0000E-12 Note: One successful gmin step
Note: True gmin stepping completed
 Reference value :  8.40000e-01pm                  =  5.539254e+01
Doing analysis at TEMP = 0.000000 and TNOM = 27.000000


No. of Data Rows : 91
psrr100             =  -5.313216e+01
psrr100k            =  -2.614565e+01
Doing analysis at TEMP = 0.000000 and TNOM = 27.000000


No. of Data Rows : 86
temp_coeff = 1.508516e+02
Doing analysis at TEMP = 0.000000 and TNOM = 27.000000


No. of Data Rows : 141
vldo_sup_2          =  1.797683e+00
vldo_sup_2_8        =  1.796593e+00
line_reg = 1.362500e-03
Note: No ".plot", ".print", or ".fourier" lines; no simulations run
vin                 =  1.764096e+00
dropout = 9.600000e-05
