 Reference value :  0.00000e+00
No compatibility mode selected!


Circuit: * ldo netlist 

Doing analysis at TEMP = 27.000000 and TNOM = 27.000000


No. of Data Rows : 1
bg_out = 1.194086e+00
inn = 1.224807e+00
inp = 1.224763e+00
l1#branch = 0.000000e+00
ldo_out = 1.795908e+00
m.xm1.msky130_fd_pr__nfet_g5v0d10v5#body = 1.404576e-11
m.xm1.msky130_fd_pr__nfet_g5v0d10v5#dbody = 2.663444e-11
m.xm1.msky130_fd_pr__nfet_g5v0d10v5#sbody = 1.550283e-11
m.xm2.msky130_fd_pr__pfet_g5v0d10v5#body = 2.100000e+00
m.xm2.msky130_fd_pr__pfet_g5v0d10v5#dbody = 2.100000e+00
m.xm2.msky130_fd_pr__pfet_g5v0d10v5#sbody = 2.100000e+00
m.xm3.msky130_fd_pr__pfet_g5v0d10v5#body = 2.100000e+00
m.xm3.msky130_fd_pr__pfet_g5v0d10v5#dbody = 2.100000e+00
m.xm3.msky130_fd_pr__pfet_g5v0d10v5#sbody = 2.100000e+00
m.xm4.msky130_fd_pr__pfet_g5v0d10v5#body = 2.100000e+00
m.xm4.msky130_fd_pr__pfet_g5v0d10v5#dbody = 2.100000e+00
m.xm4.msky130_fd_pr__pfet_g5v0d10v5#sbody = 2.100000e+00
m.xm5.msky130_fd_pr__pfet_g5v0d10v5#body = 2.100000e+00
m.xm5.msky130_fd_pr__pfet_g5v0d10v5#dbody = 2.100000e+00
m.xm5.msky130_fd_pr__pfet_g5v0d10v5#sbody = 2.100000e+00
m.xm6.msky130_fd_pr__nfet_g5v0d10v5#body = 1.111879e-11
m.xm6.msky130_fd_pr__nfet_g5v0d10v5#dbody = 2.779696e-11
m.xm6.msky130_fd_pr__nfet_g5v0d10v5#sbody = 5.559399e-12
m.xm7.msky130_fd_pr__pfet_g5v0d10v5#body = 2.100000e+00
m.xm7.msky130_fd_pr__pfet_g5v0d10v5#dbody = 2.100000e+00
m.xm7.msky130_fd_pr__pfet_g5v0d10v5#sbody = 2.100000e+00
m.xm8.msky130_fd_pr__pfet_g5v0d10v5#body = 2.100000e+00
m.xm8.msky130_fd_pr__pfet_g5v0d10v5#dbody = 2.100000e+00
m.xm8.msky130_fd_pr__pfet_g5v0d10v5#sbody = 2.100000e+00
m.xm9.msky130_fd_pr__nfet_g5v0d10v5#body = 1.473887e-11
m.xm9.msky130_fd_pr__nfet_g5v0d10v5#dbody = 2.924071e-11
m.xm9.msky130_fd_pr__nfet_g5v0d10v5#sbody = 1.497590e-11
m.xm10.msky130_fd_pr__nfet_g5v0d10v5#body = 1.477159e-11
m.xm10.msky130_fd_pr__nfet_g5v0d10v5#dbody = 2.932252e-11
m.xm10.msky130_fd_pr__nfet_g5v0d10v5#sbody = 1.499226e-11
m.xm11.msky130_fd_pr__pfet_g5v0d10v5#body = 2.100000e+00
m.xm11.msky130_fd_pr__pfet_g5v0d10v5#dbody = 2.100000e+00
m.xm11.msky130_fd_pr__pfet_g5v0d10v5#sbody = 2.100000e+00
m.xm12.msky130_fd_pr__pfet_g5v0d10v5#body = 2.100000e+00
m.xm12.msky130_fd_pr__pfet_g5v0d10v5#dbody = 2.100000e+00
m.xm12.msky130_fd_pr__pfet_g5v0d10v5#sbody = 2.100000e+00
m.xm13.msky130_fd_pr__nfet_g5v0d10v5#body = 3.801874e-12
m.xm13.msky130_fd_pr__nfet_g5v0d10v5#dbody = 9.504674e-12
m.xm13.msky130_fd_pr__nfet_g5v0d10v5#sbody = 1.900948e-12
m.xm14.msky130_fd_pr__pfet_g5v0d10v5#body = 2.100000e+00
m.xm14.msky130_fd_pr__pfet_g5v0d10v5#dbody = 2.100000e+00
m.xm14.msky130_fd_pr__pfet_g5v0d10v5#sbody = 2.100000e+00
m.xm15.msky130_fd_pr__nfet_g5v0d10v5#body = 2.144699e-18
m.xm15.msky130_fd_pr__nfet_g5v0d10v5#dbody = 5.361542e-18
m.xm15.msky130_fd_pr__nfet_g5v0d10v5#sbody = 1.072556e-18
m.xm16.msky130_fd_pr__nfet_g5v0d10v5#body = 4.156872e-11
m.xm16.msky130_fd_pr__nfet_g5v0d10v5#dbody = 7.329299e-11
m.xm16.msky130_fd_pr__nfet_g5v0d10v5#sbody = 5.141316e-11
m.xm17.msky130_fd_pr__pfet_g5v0d10v5#body = 2.100000e+00
m.xm17.msky130_fd_pr__pfet_g5v0d10v5#dbody = 2.100000e+00
m.xm17.msky130_fd_pr__pfet_g5v0d10v5#sbody = 2.100000e+00
m.xm18.msky130_fd_pr__nfet_g5v0d10v5#body = 3.989623e-12
m.xm18.msky130_fd_pr__nfet_g5v0d10v5#dbody = 9.974045e-12
m.xm18.msky130_fd_pr__nfet_g5v0d10v5#sbody = 1.994822e-12
m.xm19.msky130_fd_pr__nfet_g5v0d10v5#body = 1.409014e-11
m.xm19.msky130_fd_pr__nfet_g5v0d10v5#dbody = 2.674539e-11
m.xm19.msky130_fd_pr__nfet_g5v0d10v5#sbody = 1.552502e-11
m.xm20.msky130_fd_pr__nfet_g5v0d10v5#body = 1.103514e-11
m.xm20.msky130_fd_pr__nfet_g5v0d10v5#dbody = 2.758783e-11
m.xm20.msky130_fd_pr__nfet_g5v0d10v5#sbody = 5.517581e-12
m.xm22.msky130_fd_pr__nfet_g5v0d10v5#body = 4.242690e-12
m.xm22.msky130_fd_pr__nfet_g5v0d10v5#dbody = 1.060672e-11
m.xm22.msky130_fd_pr__nfet_g5v0d10v5#sbody = 2.121350e-12
m.xm24.msky130_fd_pr__pfet_g5v0d10v5#body = 2.100000e+00
m.xm24.msky130_fd_pr__pfet_g5v0d10v5#dbody = 2.100000e+00
m.xm24.msky130_fd_pr__pfet_g5v0d10v5#sbody = 2.100000e+00
m.xm26.msky130_fd_pr__pfet_g5v0d10v5#body = 2.100000e+00
m.xm26.msky130_fd_pr__pfet_g5v0d10v5#dbody = 2.100000e+00
m.xm26.msky130_fd_pr__pfet_g5v0d10v5#sbody = 2.100000e+00
mir = 7.841173e-01
net1 = 7.262601e-01
net2 = 1.650307e-07
net3 = 7.859585e-01
net4 = 3.388529e-01
net5 = 7.876675e-01
net6 = 8.889407e-01
net7 = 7.859137e-01
net8 = 8.772324e-01
net9 = 8.746145e-01
net10 = 3.040218e-01
net11 = 3.190417e-01
net12 = 3.190417e-01
net13 = 0.000000e+00
out = 3.190417e-01
pos = 1.194053e+00
q.xq2.qsky130_fd_pr__pnp_05v5_w0p68l0p68#collcx = 2.181136e-03
q.xq3.qsky130_fd_pr__pnp_05v5_w0p68l0p68#collcx = 2.747748e-04
q.xq4.qsky130_fd_pr__pnp_05v5_w0p68l0p68#collcx = 2.747748e-04
q.xq8.qsky130_fd_pr__pnp_05v5_w0p68l0p68#collcx = 2.747748e-04
q.xq10.qsky130_fd_pr__pnp_05v5_w0p68l0p68#collcx = 2.747748e-04
q.xq12.qsky130_fd_pr__pnp_05v5_w0p68l0p68#collcx = 2.747748e-04
q.xq14.qsky130_fd_pr__pnp_05v5_w0p68l0p68#collcx = 2.747748e-04
q.xq16.qsky130_fd_pr__pnp_05v5_w0p68l0p68#collcx = 2.747748e-04
q.xq18.qsky130_fd_pr__pnp_05v5_w0p68l0p68#collcx = 2.747748e-04
vb = 8.826828e-01
vdd = 2.100000e+00
vs#branch = -9.98973e-02
vt#branch = 0.000000e+00
xc1.a = 0.000000e+00
xc1.b1 = 0.000000e+00
xc3.a = 3.190417e-01
xc3.b1 = 3.190417e-01
xr1.xsky130_fd_pr__res_xhigh_po_0p69.ra = 7.912387e-01
xr2.xsky130_fd_pr__res_xhigh_po_0p69.ra = 7.912834e-01
xr3.xsky130_fd_pr__res_xhigh_po_0p69.ra = 3.606058e-03
xr4.xsky130_fd_pr__res_xhigh_po_0p69.ra = 7.280488e-01
xr5.xsky130_fd_pr__res_xhigh_po_0p69.ra = 3.605839e-03
xr6.xsky130_fd_pr__res_xhigh_po_0p69.ra = 5.661221e-03
xr7.xsky130_fd_pr__res_xhigh_po_0p69.ra = 3.190417e-01
xr8.xsky130_fd_pr__res_xhigh_po_0p69.ra = 1.203466e+00
xr9.xsky130_fd_pr__res_xhigh_po_0p69.ra = 9.871737e-03
Doing analysis at TEMP = 27.000000 and TNOM = 27.000000


No. of Data Rows : 91
Note: Starting true gmin stepping
Trying gmin =   1.0000E-03 Note: One successful gmin step
Trying gmin =   1.0000E-04 Note: One successful gmin step
Trying gmin =   1.0000E-05 Note: One successful gmin step
Trying gmin =   1.0000E-06 Note: One successful gmin step
Trying gmin =   1.0000E-07 Note: One successful gmin step
Trying gmin =   1.0000E-08 Note: One successful gmin step
Trying gmin =   3.1623E-09 Note: One successful gmin step
Trying gmin =   5.6234E-10 Note: One successful gmin step
Trying gmin =   5.6234E-11 Note: One successful gmin step
Trying gmin =   5.6234E-12 Note: One successful gmin step
Trying gmin =   1.0000E-12 Note: One successful gmin step
Note: True gmin stepping completed
 Reference value :  1.38000e+00pm                  =  1.061174e+02
Doing analysis at TEMP = 27.000000 and TNOM = 27.000000


No. of Data Rows : 91
psrr100             =  -5.201988e+01
psrr100k            =  -1.893299e+01
Doing analysis at TEMP = 27.000000 and TNOM = 27.000000


No. of Data Rows : 86
temp_coeff = 1.239835e+02
Doing analysis at TEMP = 27.000000 and TNOM = 27.000000


No. of Data Rows : 141
vldo_sup_2          =  1.790411e+00
vldo_sup_2_8        =  1.796154e+00
line_reg = 7.178750e-03
Note: No ".plot", ".print", or ".fourier" lines; no simulations run
vin                 =  1.976016e+00
dropout = 2.120160e-01
