 Reference value :  0.00000e+00
No compatibility mode selected!


Circuit: * ldo netlist 

Doing analysis at TEMP = 27.000000 and TNOM = 27.000000


No. of Data Rows : 1
bg_out = 1.194132e+00
inn = 1.224933e+00
inp = 1.224919e+00
l1#branch = -5.55112e-17
ldo_out = 1.796236e+00
m.xm1.msky130_fd_pr__nfet_g5v0d10v5#body = 1.969255e-11
m.xm1.msky130_fd_pr__nfet_g5v0d10v5#dbody = 4.196782e-11
m.xm1.msky130_fd_pr__nfet_g5v0d10v5#sbody = 1.710983e-11
m.xm2.msky130_fd_pr__pfet_g5v0d10v5#body = 2.500000e+00
m.xm2.msky130_fd_pr__pfet_g5v0d10v5#dbody = 2.500000e+00
m.xm2.msky130_fd_pr__pfet_g5v0d10v5#sbody = 2.500000e+00
m.xm3.msky130_fd_pr__pfet_g5v0d10v5#body = 2.500000e+00
m.xm3.msky130_fd_pr__pfet_g5v0d10v5#dbody = 2.500000e+00
m.xm3.msky130_fd_pr__pfet_g5v0d10v5#sbody = 2.500000e+00
m.xm4.msky130_fd_pr__pfet_g5v0d10v5#body = 2.500000e+00
m.xm4.msky130_fd_pr__pfet_g5v0d10v5#dbody = 2.500000e+00
m.xm4.msky130_fd_pr__pfet_g5v0d10v5#sbody = 2.500000e+00
m.xm5.msky130_fd_pr__pfet_g5v0d10v5#body = 2.500000e+00
m.xm5.msky130_fd_pr__pfet_g5v0d10v5#dbody = 2.500000e+00
m.xm5.msky130_fd_pr__pfet_g5v0d10v5#sbody = 2.500000e+00
m.xm6.msky130_fd_pr__nfet_g5v0d10v5#body = 1.175952e-11
m.xm6.msky130_fd_pr__nfet_g5v0d10v5#dbody = 2.939881e-11
m.xm6.msky130_fd_pr__nfet_g5v0d10v5#sbody = 5.879767e-12
m.xm7.msky130_fd_pr__pfet_g5v0d10v5#body = 2.500000e+00
m.xm7.msky130_fd_pr__pfet_g5v0d10v5#dbody = 2.500000e+00
m.xm7.msky130_fd_pr__pfet_g5v0d10v5#sbody = 2.500000e+00
m.xm8.msky130_fd_pr__pfet_g5v0d10v5#body = 2.500000e+00
m.xm8.msky130_fd_pr__pfet_g5v0d10v5#dbody = 2.500000e+00
m.xm8.msky130_fd_pr__pfet_g5v0d10v5#sbody = 2.500000e+00
m.xm9.msky130_fd_pr__nfet_g5v0d10v5#body = 2.032474e-11
m.xm9.msky130_fd_pr__nfet_g5v0d10v5#dbody = 4.446156e-11
m.xm9.msky130_fd_pr__nfet_g5v0d10v5#sbody = 1.651264e-11
m.xm10.msky130_fd_pr__nfet_g5v0d10v5#body = 2.013210e-11
m.xm10.msky130_fd_pr__nfet_g5v0d10v5#dbody = 4.397998e-11
m.xm10.msky130_fd_pr__nfet_g5v0d10v5#sbody = 1.641633e-11
m.xm11.msky130_fd_pr__pfet_g5v0d10v5#body = 2.500000e+00
m.xm11.msky130_fd_pr__pfet_g5v0d10v5#dbody = 2.500000e+00
m.xm11.msky130_fd_pr__pfet_g5v0d10v5#sbody = 2.500000e+00
m.xm12.msky130_fd_pr__pfet_g5v0d10v5#body = 2.500000e+00
m.xm12.msky130_fd_pr__pfet_g5v0d10v5#dbody = 2.500000e+00
m.xm12.msky130_fd_pr__pfet_g5v0d10v5#sbody = 2.500000e+00
m.xm13.msky130_fd_pr__nfet_g5v0d10v5#body = 3.173781e-12
m.xm13.msky130_fd_pr__nfet_g5v0d10v5#dbody = 7.934441e-12
m.xm13.msky130_fd_pr__nfet_g5v0d10v5#sbody = 1.586901e-12
m.xm14.msky130_fd_pr__pfet_g5v0d10v5#body = 2.500000e+00
m.xm14.msky130_fd_pr__pfet_g5v0d10v5#dbody = 2.500000e+00
m.xm14.msky130_fd_pr__pfet_g5v0d10v5#sbody = 2.500000e+00
m.xm15.msky130_fd_pr__nfet_g5v0d10v5#body = 6.353569e-16
m.xm15.msky130_fd_pr__nfet_g5v0d10v5#dbody = 1.588350e-15
m.xm15.msky130_fd_pr__nfet_g5v0d10v5#sbody = 3.177208e-16
m.xm16.msky130_fd_pr__nfet_g5v0d10v5#body = 4.657036e-11
m.xm16.msky130_fd_pr__nfet_g5v0d10v5#dbody = 8.579387e-11
m.xm16.msky130_fd_pr__nfet_g5v0d10v5#sbody = 5.391720e-11
m.xm17.msky130_fd_pr__pfet_g5v0d10v5#body = 2.500000e+00
m.xm17.msky130_fd_pr__pfet_g5v0d10v5#dbody = 2.500000e+00
m.xm17.msky130_fd_pr__pfet_g5v0d10v5#sbody = 2.500000e+00
m.xm18.msky130_fd_pr__nfet_g5v0d10v5#body = 1.774497e-11
m.xm18.msky130_fd_pr__nfet_g5v0d10v5#dbody = 4.435889e-11
m.xm18.msky130_fd_pr__nfet_g5v0d10v5#sbody = 8.872499e-12
m.xm19.msky130_fd_pr__nfet_g5v0d10v5#body = 1.971733e-11
m.xm19.msky130_fd_pr__nfet_g5v0d10v5#dbody = 4.202976e-11
m.xm19.msky130_fd_pr__nfet_g5v0d10v5#sbody = 1.712222e-11
m.xm20.msky130_fd_pr__nfet_g5v0d10v5#body = 1.203144e-11
m.xm20.msky130_fd_pr__nfet_g5v0d10v5#dbody = 3.007858e-11
m.xm20.msky130_fd_pr__nfet_g5v0d10v5#sbody = 6.015732e-12
m.xm22.msky130_fd_pr__nfet_g5v0d10v5#body = 3.634491e-12
m.xm22.msky130_fd_pr__nfet_g5v0d10v5#dbody = 9.086222e-12
m.xm22.msky130_fd_pr__nfet_g5v0d10v5#sbody = 1.817250e-12
m.xm24.msky130_fd_pr__pfet_g5v0d10v5#body = 2.500000e+00
m.xm24.msky130_fd_pr__pfet_g5v0d10v5#dbody = 2.500000e+00
m.xm24.msky130_fd_pr__pfet_g5v0d10v5#sbody = 2.500000e+00
m.xm26.msky130_fd_pr__pfet_g5v0d10v5#body = 2.500000e+00
m.xm26.msky130_fd_pr__pfet_g5v0d10v5#dbody = 2.500000e+00
m.xm26.msky130_fd_pr__pfet_g5v0d10v5#sbody = 2.500000e+00
mir = 1.284514e+00
net1 = 7.262760e-01
net2 = 4.888708e-05
net3 = 7.859789e-01
net4 = 2.901945e-01
net5 = 1.286496e+00
net6 = 9.401971e-01
net7 = 7.859641e-01
net8 = 1.356318e+00
net9 = 1.371729e+00
net10 = 2.537719e-01
net11 = 1.419326e+00
net12 = 1.419326e+00
net13 = 0.000000e+00
out = 1.419326e+00
pos = 1.194271e+00
q.xq2.qsky130_fd_pr__pnp_05v5_w0p68l0p68#collcx = 2.182556e-03
q.xq3.qsky130_fd_pr__pnp_05v5_w0p68l0p68#collcx = 2.749338e-04
q.xq4.qsky130_fd_pr__pnp_05v5_w0p68l0p68#collcx = 2.749338e-04
q.xq8.qsky130_fd_pr__pnp_05v5_w0p68l0p68#collcx = 2.749338e-04
q.xq10.qsky130_fd_pr__pnp_05v5_w0p68l0p68#collcx = 2.749338e-04
q.xq12.qsky130_fd_pr__pnp_05v5_w0p68l0p68#collcx = 2.749338e-04
q.xq14.qsky130_fd_pr__pnp_05v5_w0p68l0p68#collcx = 2.749338e-04
q.xq16.qsky130_fd_pr__pnp_05v5_w0p68l0p68#collcx = 2.749338e-04
q.xq18.qsky130_fd_pr__pnp_05v5_w0p68l0p68#collcx = 2.749338e-04
vb = 9.623845e-01
vdd = 2.500000e+00
vs#branch = -1.01058e-02
vt#branch = 0.000000e+00
xc1.a = 0.000000e+00
xc1.b1 = 0.000000e+00
xc3.a = 1.419326e+00
xc3.b1 = 1.419326e+00
xr1.xsky130_fd_pr__res_xhigh_po_0p69.ra = 7.912904e-01
xr2.xsky130_fd_pr__res_xhigh_po_0p69.ra = 7.913052e-01
xr3.xsky130_fd_pr__res_xhigh_po_0p69.ra = 3.606158e-03
xr4.xsky130_fd_pr__res_xhigh_po_0p69.ra = 7.280657e-01
xr5.xsky130_fd_pr__res_xhigh_po_0p69.ra = 3.606085e-03
xr6.xsky130_fd_pr__res_xhigh_po_0p69.ra = 5.661457e-03
xr7.xsky130_fd_pr__res_xhigh_po_0p69.ra = 1.419326e+00
xr8.xsky130_fd_pr__res_xhigh_po_0p69.ra = 1.203686e+00
xr9.xsky130_fd_pr__res_xhigh_po_0p69.ra = 9.873701e-03
Doing analysis at TEMP = 27.000000 and TNOM = 27.000000


No. of Data Rows : 91
Note: Starting true gmin stepping
Trying gmin =   1.0000E-03 Note: One successful gmin step
Trying gmin =   1.0000E-04 Note: One successful gmin step
Trying gmin =   1.0000E-05 Note: One successful gmin step
Trying gmin =   1.0000E-06 Note: One successful gmin step
Trying gmin =   1.0000E-07 Note: One successful gmin step
Trying gmin =   1.0000E-08 Warning: Further gmin increment
Trying gmin =   5.6234E-08 Note: One successful gmin step
Trying gmin =   2.3714E-08 Note: One successful gmin step
Trying gmin =   6.4938E-09 Note: One successful gmin step
Trying gmin =   9.3057E-10 Warning: Further gmin increment
Trying gmin =   3.9954E-09 Note: One successful gmin step
Trying gmin =   1.9282E-09 Warning: Further gmin increment
Trying gmin =   3.3301E-09 Note: One successful gmin step
Trying gmin =   2.5340E-09 Note: One successful gmin step
Trying gmin =   1.6820E-09 Note: One successful gmin step
Trying gmin =   9.0962E-10 Warning: Further gmin increment
Trying gmin =   1.4424E-09 Note: One successful gmin step
Trying gmin =   1.1454E-09 Note: One successful gmin step
Trying gmin =   8.1060E-10 Note: One successful gmin step
Trying gmin =   4.8256E-10 Note: One successful gmin step
Trying gmin =   2.2165E-10 Note: One successful gmin step
Trying gmin =   6.9000E-11 Note: One successful gmin step
Trying gmin =   1.1984E-11 Note: One successful gmin step
Trying gmin =   1.1984E-12 Note: One successful gmin step
Trying gmin =   1.0000E-12 Note: One successful gmin step
Note: True gmin stepping completed
 Reference value :  1.26000e+00Note: Starting true gmin stepping
Trying gmin =   1.0000E-03 Note: One successful gmin step
Trying gmin =   1.0000E-04 Note: One successful gmin step
Trying gmin =   1.0000E-05 Note: One successful gmin step
Trying gmin =   1.0000E-06 Note: One successful gmin step
Trying gmin =   1.0000E-07 Note: One successful gmin step
Trying gmin =   1.0000E-08 Note: One successful gmin step
Trying gmin =   1.0000E-09 Warning: Further gmin increment
Trying gmin =   5.6234E-09 Note: One successful gmin step
Trying gmin =   2.3714E-09 Note: One successful gmin step
Trying gmin =   1.0000E-09 Note: One successful gmin step
Trying gmin =   2.7384E-10 Warning: Further gmin increment
Trying gmin =   7.2339E-10 Warning: Further gmin increment
Trying gmin =   9.2224E-10 Note: One successful gmin step
Trying gmin =   8.1679E-10 Note: One successful gmin step
Trying gmin =   7.6867E-10 Note: One successful gmin step
Trying gmin =   7.0176E-10 Note: One successful gmin step
Trying gmin =   6.1216E-10 Note: One successful gmin step
Trying gmin =   4.9874E-10 Note: One successful gmin step
Trying gmin =   3.6677E-10 Note: One successful gmin step
Trying gmin =   2.3130E-10 Note: One successful gmin step
Trying gmin =   1.1583E-10 Note: One successful gmin step
Trying gmin =   4.1051E-11 Note: One successful gmin step
Trying gmin =   8.6608E-12 Note: One successful gmin step
Trying gmin =   1.0000E-12 Note: One successful gmin step
Note: True gmin stepping completed
 Reference value :  6.20000e-01pm                  =  -1.056740e+02
Doing analysis at TEMP = 27.000000 and TNOM = 27.000000


No. of Data Rows : 91
psrr100             =  -8.446710e+01
psrr100k            =  -2.675057e+01
Doing analysis at TEMP = 27.000000 and TNOM = 27.000000


No. of Data Rows : 86
temp_coeff = 1.424402e+02
Doing analysis at TEMP = 27.000000 and TNOM = 27.000000


No. of Data Rows : 141
vldo_sup_2          =  -1.498411e+01
vldo_sup_2_8        =  -1.494904e+01
line_reg = 4.383750e-02
Error(parse.c--checkvalid): vin: zero length vector.
Error: RHS "vin-1.764" invalid
Error(parse.c--checkvalid): dropout: zero length vector.
Error: no such vector dropout
Note: No ".plot", ".print", or ".fourier" lines; no simulations run

Error: measure  vin  (WHEN) : out of interval
 meas dc vin when v(ldo_out)=1.764 failed!

