 Reference value :  0.00000e+00
No compatibility mode selected!


Circuit: * ldo netlist 

Doing analysis at TEMP = 85.000000 and TNOM = 27.000000


No. of Data Rows : 1
bg_out = 1.207089e+00
inn = 1.157656e+00
inp = 1.157608e+00
l1#branch = -5.55112e-17
ldo_out = 1.816761e+00
m.xm1.msky130_fd_pr__nfet_g5v0d10v5#body = 2.963255e-11
m.xm1.msky130_fd_pr__nfet_g5v0d10v5#dbody = 5.721288e-11
m.xm1.msky130_fd_pr__nfet_g5v0d10v5#sbody = 3.168476e-11
m.xm2.msky130_fd_pr__pfet_g5v0d10v5#body = 2.500000e+00
m.xm2.msky130_fd_pr__pfet_g5v0d10v5#dbody = 2.500000e+00
m.xm2.msky130_fd_pr__pfet_g5v0d10v5#sbody = 2.500000e+00
m.xm3.msky130_fd_pr__pfet_g5v0d10v5#body = 2.500000e+00
m.xm3.msky130_fd_pr__pfet_g5v0d10v5#dbody = 2.500000e+00
m.xm3.msky130_fd_pr__pfet_g5v0d10v5#sbody = 2.500000e+00
m.xm4.msky130_fd_pr__pfet_g5v0d10v5#body = 2.500000e+00
m.xm4.msky130_fd_pr__pfet_g5v0d10v5#dbody = 2.500000e+00
m.xm4.msky130_fd_pr__pfet_g5v0d10v5#sbody = 2.500000e+00
m.xm5.msky130_fd_pr__pfet_g5v0d10v5#body = 2.500000e+00
m.xm5.msky130_fd_pr__pfet_g5v0d10v5#dbody = 2.500000e+00
m.xm5.msky130_fd_pr__pfet_g5v0d10v5#sbody = 2.500000e+00
m.xm6.msky130_fd_pr__nfet_g5v0d10v5#body = 2.037437e-11
m.xm6.msky130_fd_pr__nfet_g5v0d10v5#dbody = 5.093581e-11
m.xm6.msky130_fd_pr__nfet_g5v0d10v5#sbody = 1.018730e-11
m.xm7.msky130_fd_pr__pfet_g5v0d10v5#body = 2.500000e+00
m.xm7.msky130_fd_pr__pfet_g5v0d10v5#dbody = 2.500000e+00
m.xm7.msky130_fd_pr__pfet_g5v0d10v5#sbody = 2.500000e+00
m.xm8.msky130_fd_pr__pfet_g5v0d10v5#body = 2.500000e+00
m.xm8.msky130_fd_pr__pfet_g5v0d10v5#dbody = 2.500000e+00
m.xm8.msky130_fd_pr__pfet_g5v0d10v5#sbody = 2.500000e+00
m.xm9.msky130_fd_pr__nfet_g5v0d10v5#body = 2.786732e-11
m.xm9.msky130_fd_pr__nfet_g5v0d10v5#dbody = 5.567583e-11
m.xm9.msky130_fd_pr__nfet_g5v0d10v5#sbody = 2.792613e-11
m.xm10.msky130_fd_pr__nfet_g5v0d10v5#body = 2.757259e-11
m.xm10.msky130_fd_pr__nfet_g5v0d10v5#dbody = 5.493900e-11
m.xm10.msky130_fd_pr__nfet_g5v0d10v5#sbody = 2.777876e-11
m.xm11.msky130_fd_pr__pfet_g5v0d10v5#body = 2.500000e+00
m.xm11.msky130_fd_pr__pfet_g5v0d10v5#dbody = 2.500000e+00
m.xm11.msky130_fd_pr__pfet_g5v0d10v5#sbody = 2.500000e+00
m.xm12.msky130_fd_pr__pfet_g5v0d10v5#body = 2.500000e+00
m.xm12.msky130_fd_pr__pfet_g5v0d10v5#dbody = 2.500000e+00
m.xm12.msky130_fd_pr__pfet_g5v0d10v5#sbody = 2.500000e+00
m.xm13.msky130_fd_pr__nfet_g5v0d10v5#body = 5.349018e-12
m.xm13.msky130_fd_pr__nfet_g5v0d10v5#dbody = 1.337247e-11
m.xm13.msky130_fd_pr__nfet_g5v0d10v5#sbody = 2.674579e-12
m.xm14.msky130_fd_pr__pfet_g5v0d10v5#body = 2.500000e+00
m.xm14.msky130_fd_pr__pfet_g5v0d10v5#dbody = 2.500000e+00
m.xm14.msky130_fd_pr__pfet_g5v0d10v5#sbody = 2.500000e+00
m.xm15.msky130_fd_pr__nfet_g5v0d10v5#body = 2.857675e-14
m.xm15.msky130_fd_pr__nfet_g5v0d10v5#dbody = 7.144054e-14
m.xm15.msky130_fd_pr__nfet_g5v0d10v5#sbody = 1.428969e-14
m.xm16.msky130_fd_pr__nfet_g5v0d10v5#body = 5.632702e-11
m.xm16.msky130_fd_pr__nfet_g5v0d10v5#dbody = 1.012698e-10
m.xm16.msky130_fd_pr__nfet_g5v0d10v5#sbody = 6.771123e-11
m.xm17.msky130_fd_pr__pfet_g5v0d10v5#body = 2.500000e+00
m.xm17.msky130_fd_pr__pfet_g5v0d10v5#dbody = 2.500000e+00
m.xm17.msky130_fd_pr__pfet_g5v0d10v5#sbody = 2.500000e+00
m.xm18.msky130_fd_pr__nfet_g5v0d10v5#body = 2.447753e-11
m.xm18.msky130_fd_pr__nfet_g5v0d10v5#dbody = 6.028104e-11
m.xm18.msky130_fd_pr__nfet_g5v0d10v5#sbody = 1.223885e-11
m.xm19.msky130_fd_pr__nfet_g5v0d10v5#body = 2.970719e-11
m.xm19.msky130_fd_pr__nfet_g5v0d10v5#dbody = 5.739950e-11
m.xm19.msky130_fd_pr__nfet_g5v0d10v5#sbody = 3.172208e-11
m.xm20.msky130_fd_pr__nfet_g5v0d10v5#body = 1.438014e-11
m.xm20.msky130_fd_pr__nfet_g5v0d10v5#dbody = 3.595026e-11
m.xm20.msky130_fd_pr__nfet_g5v0d10v5#sbody = 7.190149e-12
m.xm22.msky130_fd_pr__nfet_g5v0d10v5#body = 1.172809e-11
m.xm22.msky130_fd_pr__nfet_g5v0d10v5#dbody = 2.932012e-11
m.xm22.msky130_fd_pr__nfet_g5v0d10v5#sbody = 5.864158e-12
m.xm24.msky130_fd_pr__pfet_g5v0d10v5#body = 2.500000e+00
m.xm24.msky130_fd_pr__pfet_g5v0d10v5#dbody = 2.500000e+00
m.xm24.msky130_fd_pr__pfet_g5v0d10v5#sbody = 2.500000e+00
m.xm26.msky130_fd_pr__pfet_g5v0d10v5#body = 2.500000e+00
m.xm26.msky130_fd_pr__pfet_g5v0d10v5#dbody = 2.500000e+00
m.xm26.msky130_fd_pr__pfet_g5v0d10v5#sbody = 2.500000e+00
mir = 1.271611e+00
net1 = 6.383683e-01
net2 = 5.511338e-05
net3 = 7.117243e-01
net4 = 2.507115e-01
net5 = 1.277583e+00
net6 = 9.420483e-01
net7 = 7.116751e-01
net8 = 1.353677e+00
net9 = 1.377256e+00
net10 = 2.673615e-01
net11 = 1.761083e+00
net12 = 1.761083e+00
net13 = 0.000000e+00
out = 1.761083e+00
pos = 1.207338e+00
q.xq2.qsky130_fd_pr__pnp_05v5_w0p68l0p68#collcx = 2.934797e-03
q.xq3.qsky130_fd_pr__pnp_05v5_w0p68l0p68#collcx = 3.736296e-04
q.xq4.qsky130_fd_pr__pnp_05v5_w0p68l0p68#collcx = 3.736296e-04
q.xq8.qsky130_fd_pr__pnp_05v5_w0p68l0p68#collcx = 3.736296e-04
q.xq10.qsky130_fd_pr__pnp_05v5_w0p68l0p68#collcx = 3.736296e-04
q.xq12.qsky130_fd_pr__pnp_05v5_w0p68l0p68#collcx = 3.736296e-04
q.xq14.qsky130_fd_pr__pnp_05v5_w0p68l0p68#collcx = 3.736296e-04
q.xq16.qsky130_fd_pr__pnp_05v5_w0p68l0p68#collcx = 3.736296e-04
q.xq18.qsky130_fd_pr__pnp_05v5_w0p68l0p68#collcx = 3.736296e-04
vb = 9.897991e-01
vdd = 2.500000e+00
vs#branch = -1.95015e-04
vt#branch = 0.000000e+00
xc1.a = 0.000000e+00
xc1.b1 = 0.000000e+00
xc3.a = 1.761083e+00
xc3.b1 = 1.761083e+00
xr1.xsky130_fd_pr__res_xhigh_po_0p69.ra = 7.148591e-01
xr2.xsky130_fd_pr__res_xhigh_po_0p69.ra = 7.149084e-01
xr3.xsky130_fd_pr__res_xhigh_po_0p69.ra = 1.911935e-03
xr4.xsky130_fd_pr__res_xhigh_po_0p69.ra = 6.396593e-01
xr5.xsky130_fd_pr__res_xhigh_po_0p69.ra = 1.911795e-03
xr6.xsky130_fd_pr__res_xhigh_po_0p69.ra = 3.375039e-03
xr7.xsky130_fd_pr__res_xhigh_po_0p69.ra = 1.761083e+00
xr8.xsky130_fd_pr__res_xhigh_po_0p69.ra = 1.212945e+00
xr9.xsky130_fd_pr__res_xhigh_po_0p69.ra = 5.882658e-03
Doing analysis at TEMP = 85.000000 and TNOM = 27.000000


No. of Data Rows : 91
Note: Starting true gmin stepping
Trying gmin =   1.0000E-03 Note: One successful gmin step
Trying gmin =   1.0000E-04 Note: One successful gmin step
Trying gmin =   1.0000E-05 Note: One successful gmin step
Trying gmin =   1.0000E-06 Note: One successful gmin step
Trying gmin =   1.0000E-07 Note: One successful gmin step
Trying gmin =   1.0000E-08 Warning: Further gmin increment
Trying gmin =   5.6234E-08 Warning: Further gmin increment
Trying gmin =   8.6596E-08 Warning: Further gmin increment
Trying gmin =   9.6466E-08 Note: One successful gmin step
Trying gmin =   9.1398E-08 Note: One successful gmin step
Trying gmin =   8.8965E-08 Note: One successful gmin step
Trying gmin =   8.5436E-08 Note: One successful gmin step
Trying gmin =   8.0403E-08 Note: One successful gmin step
Trying gmin =   7.3404E-08 Note: One successful gmin step
Trying gmin =   7.0137E-08 Note: One successful gmin step
Trying gmin =   6.5506E-08 Note: One successful gmin step
Trying gmin =   5.9128E-08 Note: One successful gmin step
Trying gmin =   5.0705E-08 Note: One successful gmin step
Trying gmin =   4.0266E-08 Note: One successful gmin step
Trying gmin =   2.8495E-08 Note: One successful gmin step
Trying gmin =   1.6963E-08 Note: One successful gmin step
Trying gmin =   7.7917E-09 Note: One successful gmin step
Trying gmin =   2.4255E-09 Note: One successful gmin step
Trying gmin =   4.2129E-10 Note: One successful gmin step
Trying gmin =   4.2129E-11 Note: One successful gmin step
Trying gmin =   4.2129E-12 Note: One successful gmin step
Trying gmin =   1.0000E-12 Note: One successful gmin step
Note: True gmin stepping completed
 Reference value :  2.80000e+00Note: Starting true gmin stepping
Trying gmin =   1.0000E-03 Note: One successful gmin step
Trying gmin =   1.0000E-04 Note: One successful gmin step
Trying gmin =   1.0000E-05 Note: One successful gmin step
Trying gmin =   1.0000E-06 Note: One successful gmin step
Trying gmin =   1.0000E-07 Note: One successful gmin step
Trying gmin =   1.0000E-08 Warning: Further gmin increment
Trying gmin =   5.6234E-08 Note: One successful gmin step
Trying gmin =   2.3714E-08 Note: One successful gmin step
Trying gmin =   6.4938E-09 Warning: Further gmin increment
Trying gmin =   1.7154E-08 Note: One successful gmin step
Trying gmin =   1.0554E-08 Note: One successful gmin step
Trying gmin =   5.0937E-09 Warning: Further gmin increment
Trying gmin =   8.7970E-09 Note: One successful gmin step
Trying gmin =   6.6940E-09 Note: One successful gmin step
Trying gmin =   4.4433E-09 Note: One successful gmin step
Trying gmin =   2.4029E-09 Note: One successful gmin step
Trying gmin =   9.5562E-10 Note: One successful gmin step
Trying gmin =   2.3967E-10 Note: One successful gmin step
Trying gmin =   3.0102E-11 Note: One successful gmin step
Trying gmin =   3.0102E-12 Note: One successful gmin step
Trying gmin =   1.0000E-12 Note: One successful gmin step
Note: True gmin stepping completed
Note: Starting true gmin stepping
Trying gmin =   1.0000E-03 Note: One successful gmin step
Trying gmin =   1.0000E-04 Note: One successful gmin step
Trying gmin =   1.0000E-05 Note: One successful gmin step
Trying gmin =   1.0000E-06 Note: One successful gmin step
Trying gmin =   1.0000E-07 Note: One successful gmin step
Trying gmin =   1.0000E-08 Warning: Further gmin increment
Trying gmin =   5.6234E-08 Note: One successful gmin step
Trying gmin =   2.3714E-08 Note: One successful gmin step
Trying gmin =   6.4938E-09 Note: One successful gmin step
Trying gmin =   9.3057E-10 Warning: Further gmin increment
Trying gmin =   3.9954E-09 Note: One successful gmin step
Trying gmin =   1.9282E-09 Note: One successful gmin step
Trying gmin =   6.4647E-10 Note: One successful gmin step
Trying gmin =   1.2550E-10 Note: One successful gmin step
Trying gmin =   1.2550E-11 Note: One successful gmin step
Trying gmin =   1.2550E-12 Note: One successful gmin step
Trying gmin =   1.0000E-12 Note: One successful gmin step
Note: True gmin stepping completed
 Reference value :  1.32000e+00pm                  =  5.745875e+01
Doing analysis at TEMP = 85.000000 and TNOM = 27.000000


No. of Data Rows : 91
psrr100             =  -5.303036e+01
psrr100k            =  -2.465467e+01
Doing analysis at TEMP = 85.000000 and TNOM = 27.000000


No. of Data Rows : 86
temp_coeff = 1.892812e+02
Doing analysis at TEMP = 85.000000 and TNOM = 27.000000


No. of Data Rows : 141
vldo_sup_2          =  1.814815e+00
vldo_sup_2_8        =  1.817306e+00
line_reg = 3.113750e-03
Note: No ".plot", ".print", or ".fourier" lines; no simulations run
vin                 =  1.764176e+00
dropout = 1.760000e-04
