 Reference value :  0.00000e+00
No compatibility mode selected!


Circuit: * ldo netlist 

Doing analysis at TEMP = 27.000000 and TNOM = 27.000000


No. of Data Rows : 1
bg_out = 1.097454e+00
inn = 1.141904e+00
inp = 1.141869e+00
l1#branch = 0.000000e+00
ldo_out = 1.803842e+00
m.xm1.msky130_fd_pr__nfet_g5v0d10v5#body = 1.573584e-11
m.xm1.msky130_fd_pr__nfet_g5v0d10v5#dbody = 3.241353e-11
m.xm1.msky130_fd_pr__nfet_g5v0d10v5#sbody = 1.479399e-11
m.xm2.msky130_fd_pr__pfet_g5v0d10v5#body = 2.300000e+00
m.xm2.msky130_fd_pr__pfet_g5v0d10v5#dbody = 2.300000e+00
m.xm2.msky130_fd_pr__pfet_g5v0d10v5#sbody = 2.300000e+00
m.xm3.msky130_fd_pr__pfet_g5v0d10v5#body = 2.300000e+00
m.xm3.msky130_fd_pr__pfet_g5v0d10v5#dbody = 2.300000e+00
m.xm3.msky130_fd_pr__pfet_g5v0d10v5#sbody = 2.300000e+00
m.xm4.msky130_fd_pr__pfet_g5v0d10v5#body = 2.300000e+00
m.xm4.msky130_fd_pr__pfet_g5v0d10v5#dbody = 2.300000e+00
m.xm4.msky130_fd_pr__pfet_g5v0d10v5#sbody = 2.300000e+00
m.xm5.msky130_fd_pr__pfet_g5v0d10v5#body = 2.300000e+00
m.xm5.msky130_fd_pr__pfet_g5v0d10v5#dbody = 2.300000e+00
m.xm5.msky130_fd_pr__pfet_g5v0d10v5#sbody = 2.300000e+00
m.xm6.msky130_fd_pr__nfet_g5v0d10v5#body = 1.114906e-11
m.xm6.msky130_fd_pr__nfet_g5v0d10v5#dbody = 2.787265e-11
m.xm6.msky130_fd_pr__nfet_g5v0d10v5#sbody = 5.574535e-12
m.xm7.msky130_fd_pr__pfet_g5v0d10v5#body = 2.300000e+00
m.xm7.msky130_fd_pr__pfet_g5v0d10v5#dbody = 2.300000e+00
m.xm7.msky130_fd_pr__pfet_g5v0d10v5#sbody = 2.300000e+00
m.xm8.msky130_fd_pr__pfet_g5v0d10v5#body = 2.300000e+00
m.xm8.msky130_fd_pr__pfet_g5v0d10v5#dbody = 2.300000e+00
m.xm8.msky130_fd_pr__pfet_g5v0d10v5#sbody = 2.300000e+00
m.xm9.msky130_fd_pr__nfet_g5v0d10v5#body = 1.636163e-11
m.xm9.msky130_fd_pr__nfet_g5v0d10v5#dbody = 3.507844e-11
m.xm9.msky130_fd_pr__nfet_g5v0d10v5#sbody = 1.400644e-11
m.xm10.msky130_fd_pr__nfet_g5v0d10v5#body = 1.616438e-11
m.xm10.msky130_fd_pr__nfet_g5v0d10v5#dbody = 3.458532e-11
m.xm10.msky130_fd_pr__nfet_g5v0d10v5#sbody = 1.390782e-11
m.xm11.msky130_fd_pr__pfet_g5v0d10v5#body = 2.300000e+00
m.xm11.msky130_fd_pr__pfet_g5v0d10v5#dbody = 2.300000e+00
m.xm11.msky130_fd_pr__pfet_g5v0d10v5#sbody = 2.300000e+00
m.xm12.msky130_fd_pr__pfet_g5v0d10v5#body = 2.300000e+00
m.xm12.msky130_fd_pr__pfet_g5v0d10v5#dbody = 2.300000e+00
m.xm12.msky130_fd_pr__pfet_g5v0d10v5#sbody = 2.300000e+00
m.xm13.msky130_fd_pr__nfet_g5v0d10v5#body = 2.911456e-12
m.xm13.msky130_fd_pr__nfet_g5v0d10v5#dbody = 7.278629e-12
m.xm13.msky130_fd_pr__nfet_g5v0d10v5#sbody = 1.455739e-12
m.xm14.msky130_fd_pr__pfet_g5v0d10v5#body = 2.300000e+00
m.xm14.msky130_fd_pr__pfet_g5v0d10v5#dbody = 2.300000e+00
m.xm14.msky130_fd_pr__pfet_g5v0d10v5#sbody = 2.300000e+00
m.xm15.msky130_fd_pr__nfet_g5v0d10v5#body = 1.405104e-16
m.xm15.msky130_fd_pr__nfet_g5v0d10v5#dbody = 3.512652e-16
m.xm15.msky130_fd_pr__nfet_g5v0d10v5#sbody = 7.026610e-17
m.xm16.msky130_fd_pr__nfet_g5v0d10v5#body = 4.303242e-11
m.xm16.msky130_fd_pr__nfet_g5v0d10v5#dbody = 7.902484e-11
m.xm16.msky130_fd_pr__nfet_g5v0d10v5#sbody = 5.007243e-11
m.xm17.msky130_fd_pr__pfet_g5v0d10v5#body = 2.300000e+00
m.xm17.msky130_fd_pr__pfet_g5v0d10v5#dbody = 2.300000e+00
m.xm17.msky130_fd_pr__pfet_g5v0d10v5#sbody = 2.300000e+00
m.xm18.msky130_fd_pr__nfet_g5v0d10v5#body = 1.373044e-11
m.xm18.msky130_fd_pr__nfet_g5v0d10v5#dbody = 3.432608e-11
m.xm18.msky130_fd_pr__nfet_g5v0d10v5#sbody = 6.865232e-12
m.xm19.msky130_fd_pr__nfet_g5v0d10v5#body = 1.578493e-11
m.xm19.msky130_fd_pr__nfet_g5v0d10v5#dbody = 3.253624e-11
m.xm19.msky130_fd_pr__nfet_g5v0d10v5#sbody = 1.481854e-11
m.xm20.msky130_fd_pr__nfet_g5v0d10v5#body = 1.106485e-11
m.xm20.msky130_fd_pr__nfet_g5v0d10v5#dbody = 2.766211e-11
m.xm20.msky130_fd_pr__nfet_g5v0d10v5#sbody = 5.532437e-12
m.xm22.msky130_fd_pr__nfet_g5v0d10v5#body = 3.465749e-12
m.xm22.msky130_fd_pr__nfet_g5v0d10v5#dbody = 8.664368e-12
m.xm22.msky130_fd_pr__nfet_g5v0d10v5#sbody = 1.732879e-12
m.xm24.msky130_fd_pr__pfet_g5v0d10v5#body = 2.300000e+00
m.xm24.msky130_fd_pr__pfet_g5v0d10v5#dbody = 2.300000e+00
m.xm24.msky130_fd_pr__pfet_g5v0d10v5#sbody = 2.300000e+00
m.xm26.msky130_fd_pr__pfet_g5v0d10v5#body = 2.300000e+00
m.xm26.msky130_fd_pr__pfet_g5v0d10v5#dbody = 2.300000e+00
m.xm26.msky130_fd_pr__pfet_g5v0d10v5#sbody = 2.300000e+00
mir = 9.814792e-01
net1 = 7.262709e-01
net2 = 1.081210e-05
net3 = 7.859704e-01
net4 = 2.766976e-01
net5 = 9.854060e-01
net6 = 8.913625e-01
net7 = 7.859355e-01
net8 = 1.059889e+00
net9 = 1.075668e+00
net10 = 2.327884e-01
net11 = 1.098307e+00
net12 = 1.098307e+00
net13 = 0.000000e+00
out = 1.098307e+00
pos = 1.097613e+00
q.xq2.qsky130_fd_pr__pnp_05v5_w0p68l0p68#collcx = 2.181590e-03
q.xq3.qsky130_fd_pr__pnp_05v5_w0p68l0p68#collcx = 2.748255e-04
q.xq4.qsky130_fd_pr__pnp_05v5_w0p68l0p68#collcx = 2.748255e-04
q.xq8.qsky130_fd_pr__pnp_05v5_w0p68l0p68#collcx = 2.748255e-04
q.xq10.qsky130_fd_pr__pnp_05v5_w0p68l0p68#collcx = 2.748255e-04
q.xq12.qsky130_fd_pr__pnp_05v5_w0p68l0p68#collcx = 2.748255e-04
q.xq14.qsky130_fd_pr__pnp_05v5_w0p68l0p68#collcx = 2.748255e-04
q.xq16.qsky130_fd_pr__pnp_05v5_w0p68l0p68#collcx = 2.748255e-04
q.xq18.qsky130_fd_pr__pnp_05v5_w0p68l0p68#collcx = 2.748255e-04
vb = 8.850596e-01
vdd = 2.300000e+00
vs#branch = -1.01491e-02
vt#branch = 0.000000e+00
xc1.a = 0.000000e+00
xc1.b1 = 0.000000e+00
xc3.a = 1.098307e+00
xc3.b1 = 1.098307e+00
xr1.xsky130_fd_pr__res_xhigh_po_0p69.ra = 7.914064e-01
xr2.xsky130_fd_pr__res_xhigh_po_0p69.ra = 7.914414e-01
xr3.xsky130_fd_pr__res_xhigh_po_0p69.ra = 3.785553e-03
xr4.xsky130_fd_pr__res_xhigh_po_0p69.ra = 7.280599e-01
xr5.xsky130_fd_pr__res_xhigh_po_0p69.ra = 3.785374e-03
xr6.xsky130_fd_pr__res_xhigh_po_0p69.ra = 5.807000e-03
xr7.xsky130_fd_pr__res_xhigh_po_0p69.ra = 1.098307e+00
xr8.xsky130_fd_pr__res_xhigh_po_0p69.ra = 1.106437e+00
xr9.xsky130_fd_pr__res_xhigh_po_0p69.ra = 9.108431e-03
Doing analysis at TEMP = 27.000000 and TNOM = 27.000000


No. of Data Rows : 91
Error: no such vector PM
Note: Starting true gmin stepping
Trying gmin =   1.0000E-03 Note: One successful gmin step
Trying gmin =   1.0000E-04 Note: One successful gmin step
Trying gmin =   1.0000E-05 Note: One successful gmin step
Trying gmin =   1.0000E-06 Note: One successful gmin step
Trying gmin =   1.0000E-07 Note: One successful gmin step
Trying gmin =   1.0000E-08 Warning: Further gmin increment
Trying gmin =   5.6234E-08 Note: One successful gmin step
Trying gmin =   2.3714E-08 Warning: Further gmin increment
Trying gmin =   4.5316E-08 Note: One successful gmin step
Trying gmin =   3.2781E-08 Warning: Further gmin increment
Trying gmin =   4.1792E-08 Note: One successful gmin step
Trying gmin =   3.7013E-08 Note: One successful gmin step
Trying gmin =   3.0850E-08 Note: One successful gmin step
Trying gmin =   2.3475E-08 Note: One successful gmin step
Trying gmin =   1.5582E-08 Note: One successful gmin step
Trying gmin =   8.4267E-09 Note: One successful gmin step
Trying gmin =   3.3513E-09 Note: One successful gmin step
Trying gmin =   8.4049E-10 Note: One successful gmin step
Trying gmin =   1.0556E-10 Note: One successful gmin step
Trying gmin =   1.0556E-11 Note: One successful gmin step
Trying gmin =   1.0556E-12 Note: One successful gmin step
Trying gmin =   1.0000E-12 Note: One successful gmin step
Note: True gmin stepping completed
 Reference value :  1.48000e+00Note: Starting true gmin stepping
Trying gmin =   1.0000E-03 Note: One successful gmin step
Trying gmin =   1.0000E-04 Note: One successful gmin step
Trying gmin =   1.0000E-05 Note: One successful gmin step
Trying gmin =   1.0000E-06 Note: One successful gmin step
Trying gmin =   1.0000E-07 Note: One successful gmin step
Trying gmin =   1.0000E-08 Warning: Further gmin increment
Trying gmin =   5.6234E-08 Note: One successful gmin step
Trying gmin =   2.3714E-08 Warning: Further gmin increment
Trying gmin =   4.5316E-08 Note: One successful gmin step
Trying gmin =   3.2781E-08 Note: One successful gmin step
Trying gmin =   2.0169E-08 Note: One successful gmin step
Trying gmin =   9.7338E-09 Note: One successful gmin step
Trying gmin =   3.2634E-09 Note: One successful gmin step
Trying gmin =   6.3352E-10 Note: One successful gmin step
Trying gmin =   6.3352E-11 Note: One successful gmin step
Trying gmin =   6.3352E-12 Note: One successful gmin step
Trying gmin =   1.0000E-12 Note: One successful gmin step
Note: True gmin stepping completed

Error: measure  pm  (AT) : out of interval
 meas ac pm find p when vdb(ldo_out)=0 failed!

Doing analysis at TEMP = 27.000000 and TNOM = 27.000000


No. of Data Rows : 91
psrr100             =  -7.846740e+01
psrr100k            =  -2.699170e+01
Doing analysis at TEMP = 27.000000 and TNOM = 27.000000


No. of Data Rows : 86
temp_coeff = 4.204473e+01
Doing analysis at TEMP = 27.000000 and TNOM = 27.000000


No. of Data Rows : 141
vldo_sup_2          =  1.803747e+00
vldo_sup_2_8        =  1.803769e+00
line_reg = 2.750000e-05
Note: No ".plot", ".print", or ".fourier" lines; no simulations run
vin                 =  1.786369e+00
dropout = 2.236900e-02
