 Reference value :  0.00000e+00
No compatibility mode selected!


Circuit: * ldo netlist 

Doing analysis at TEMP = 85.000000 and TNOM = 27.000000


No. of Data Rows : 1
bg_out = 1.198082e+00
inn = 1.140933e+00
inp = 1.140926e+00
l1#branch = 0.000000e+00
ldo_out = 1.803155e+00
m.xm1.msky130_fd_pr__nfet_g5v0d10v5#body = 3.207573e-11
m.xm1.msky130_fd_pr__nfet_g5v0d10v5#dbody = 6.189730e-11
m.xm1.msky130_fd_pr__nfet_g5v0d10v5#sbody = 3.432990e-11
m.xm2.msky130_fd_pr__pfet_g5v0d10v5#body = 2.500000e+00
m.xm2.msky130_fd_pr__pfet_g5v0d10v5#dbody = 2.500000e+00
m.xm2.msky130_fd_pr__pfet_g5v0d10v5#sbody = 2.500000e+00
m.xm3.msky130_fd_pr__pfet_g5v0d10v5#body = 2.500000e+00
m.xm3.msky130_fd_pr__pfet_g5v0d10v5#dbody = 2.500000e+00
m.xm3.msky130_fd_pr__pfet_g5v0d10v5#sbody = 2.500000e+00
m.xm4.msky130_fd_pr__pfet_g5v0d10v5#body = 2.500000e+00
m.xm4.msky130_fd_pr__pfet_g5v0d10v5#dbody = 2.500000e+00
m.xm4.msky130_fd_pr__pfet_g5v0d10v5#sbody = 2.500000e+00
m.xm5.msky130_fd_pr__pfet_g5v0d10v5#body = 2.500000e+00
m.xm5.msky130_fd_pr__pfet_g5v0d10v5#dbody = 2.500000e+00
m.xm5.msky130_fd_pr__pfet_g5v0d10v5#sbody = 2.500000e+00
m.xm6.msky130_fd_pr__nfet_g5v0d10v5#body = 1.934684e-11
m.xm6.msky130_fd_pr__nfet_g5v0d10v5#dbody = 4.836698e-11
m.xm6.msky130_fd_pr__nfet_g5v0d10v5#sbody = 9.673536e-12
m.xm7.msky130_fd_pr__pfet_g5v0d10v5#body = 2.500000e+00
m.xm7.msky130_fd_pr__pfet_g5v0d10v5#dbody = 2.500000e+00
m.xm7.msky130_fd_pr__pfet_g5v0d10v5#sbody = 2.500000e+00
m.xm8.msky130_fd_pr__pfet_g5v0d10v5#body = 2.500000e+00
m.xm8.msky130_fd_pr__pfet_g5v0d10v5#dbody = 2.500000e+00
m.xm8.msky130_fd_pr__pfet_g5v0d10v5#sbody = 2.500000e+00
m.xm9.msky130_fd_pr__nfet_g5v0d10v5#body = 3.029270e-11
m.xm9.msky130_fd_pr__nfet_g5v0d10v5#dbody = 6.005849e-11
m.xm9.msky130_fd_pr__nfet_g5v0d10v5#sbody = 3.081959e-11
m.xm10.msky130_fd_pr__nfet_g5v0d10v5#body = 3.003978e-11
m.xm10.msky130_fd_pr__nfet_g5v0d10v5#dbody = 5.942620e-11
m.xm10.msky130_fd_pr__nfet_g5v0d10v5#sbody = 3.069313e-11
m.xm11.msky130_fd_pr__pfet_g5v0d10v5#body = 2.500000e+00
m.xm11.msky130_fd_pr__pfet_g5v0d10v5#dbody = 2.500000e+00
m.xm11.msky130_fd_pr__pfet_g5v0d10v5#sbody = 2.500000e+00
m.xm12.msky130_fd_pr__pfet_g5v0d10v5#body = 2.500000e+00
m.xm12.msky130_fd_pr__pfet_g5v0d10v5#dbody = 2.500000e+00
m.xm12.msky130_fd_pr__pfet_g5v0d10v5#sbody = 2.500000e+00
m.xm13.msky130_fd_pr__nfet_g5v0d10v5#body = 6.188936e-12
m.xm13.msky130_fd_pr__nfet_g5v0d10v5#dbody = 1.547227e-11
m.xm13.msky130_fd_pr__nfet_g5v0d10v5#sbody = 3.094539e-12
m.xm14.msky130_fd_pr__pfet_g5v0d10v5#body = 2.500000e+00
m.xm14.msky130_fd_pr__pfet_g5v0d10v5#dbody = 2.500000e+00
m.xm14.msky130_fd_pr__pfet_g5v0d10v5#sbody = 2.500000e+00
m.xm15.msky130_fd_pr__nfet_g5v0d10v5#body = 3.893502e-14
m.xm15.msky130_fd_pr__nfet_g5v0d10v5#dbody = 9.733445e-14
m.xm15.msky130_fd_pr__nfet_g5v0d10v5#sbody = 1.947060e-14
m.xm16.msky130_fd_pr__nfet_g5v0d10v5#body = 5.601426e-11
m.xm16.msky130_fd_pr__nfet_g5v0d10v5#dbody = 1.010097e-10
m.xm16.msky130_fd_pr__nfet_g5v0d10v5#sbody = 6.703305e-11
m.xm17.msky130_fd_pr__pfet_g5v0d10v5#body = 2.500000e+00
m.xm17.msky130_fd_pr__pfet_g5v0d10v5#dbody = 2.500000e+00
m.xm17.msky130_fd_pr__pfet_g5v0d10v5#sbody = 2.500000e+00
m.xm18.msky130_fd_pr__nfet_g5v0d10v5#body = 3.178705e-11
m.xm18.msky130_fd_pr__nfet_g5v0d10v5#dbody = 6.793217e-11
m.xm18.msky130_fd_pr__nfet_g5v0d10v5#sbody = 1.589361e-11
m.xm19.msky130_fd_pr__nfet_g5v0d10v5#body = 3.208677e-11
m.xm19.msky130_fd_pr__nfet_g5v0d10v5#dbody = 6.192488e-11
m.xm19.msky130_fd_pr__nfet_g5v0d10v5#sbody = 3.433541e-11
m.xm20.msky130_fd_pr__nfet_g5v0d10v5#body = 1.275633e-11
m.xm20.msky130_fd_pr__nfet_g5v0d10v5#dbody = 3.189075e-11
m.xm20.msky130_fd_pr__nfet_g5v0d10v5#sbody = 6.378243e-12
m.xm22.msky130_fd_pr__nfet_g5v0d10v5#body = 1.244134e-11
m.xm22.msky130_fd_pr__nfet_g5v0d10v5#dbody = 3.110323e-11
m.xm22.msky130_fd_pr__nfet_g5v0d10v5#sbody = 6.220782e-12
m.xm24.msky130_fd_pr__pfet_g5v0d10v5#body = 2.500000e+00
m.xm24.msky130_fd_pr__pfet_g5v0d10v5#dbody = 2.500000e+00
m.xm24.msky130_fd_pr__pfet_g5v0d10v5#sbody = 2.500000e+00
m.xm26.msky130_fd_pr__pfet_g5v0d10v5#body = 2.500000e+00
m.xm26.msky130_fd_pr__pfet_g5v0d10v5#dbody = 2.500000e+00
m.xm26.msky130_fd_pr__pfet_g5v0d10v5#sbody = 2.500000e+00
mir = 1.414273e+00
net1 = 6.241081e-01
net2 = 7.533917e-05
net3 = 6.981544e-01
net4 = 3.116127e-01
net5 = 1.415156e+00
net6 = 8.639945e-01
net7 = 6.981471e-01
net8 = 1.487970e+00
net9 = 1.508204e+00
net10 = 3.386580e-01
net11 = 1.925086e+00
net12 = 1.925086e+00
net13 = 0.000000e+00
out = 1.925086e+00
pos = 1.198298e+00
q.xq2.qsky130_fd_pr__pnp_05v5_w0p68l0p68#collcx = 3.167994e-03
q.xq3.qsky130_fd_pr__pnp_05v5_w0p68l0p68#collcx = 3.987123e-04
q.xq4.qsky130_fd_pr__pnp_05v5_w0p68l0p68#collcx = 3.987123e-04
q.xq8.qsky130_fd_pr__pnp_05v5_w0p68l0p68#collcx = 3.987123e-04
q.xq10.qsky130_fd_pr__pnp_05v5_w0p68l0p68#collcx = 3.987123e-04
q.xq12.qsky130_fd_pr__pnp_05v5_w0p68l0p68#collcx = 3.987123e-04
q.xq14.qsky130_fd_pr__pnp_05v5_w0p68l0p68#collcx = 3.987123e-04
q.xq16.qsky130_fd_pr__pnp_05v5_w0p68l0p68#collcx = 3.987123e-04
q.xq18.qsky130_fd_pr__pnp_05v5_w0p68l0p68#collcx = 3.987123e-04
vb = 8.640434e-01
vdd = 2.500000e+00
vs#branch = -1.95707e-04
vt#branch = 0.000000e+00
xc1.a = 0.000000e+00
xc1.b1 = 0.000000e+00
xc3.a = 1.925086e+00
xc3.b1 = 1.925086e+00
xr1.xsky130_fd_pr__res_xhigh_po_0p69.ra = 7.013080e-01
xr2.xsky130_fd_pr__res_xhigh_po_0p69.ra = 7.013153e-01
xr3.xsky130_fd_pr__res_xhigh_po_0p69.ra = 1.873374e-03
xr4.xsky130_fd_pr__res_xhigh_po_0p69.ra = 6.254121e-01
xr5.xsky130_fd_pr__res_xhigh_po_0p69.ra = 1.873353e-03
xr6.xsky130_fd_pr__res_xhigh_po_0p69.ra = 3.347609e-03
xr7.xsky130_fd_pr__res_xhigh_po_0p69.ra = 1.925086e+00
xr8.xsky130_fd_pr__res_xhigh_po_0p69.ra = 1.203862e+00
xr9.xsky130_fd_pr__res_xhigh_po_0p69.ra = 5.834691e-03
Doing analysis at TEMP = 85.000000 and TNOM = 27.000000


No. of Data Rows : 91
Note: Starting true gmin stepping
Trying gmin =   1.0000E-03 Note: One successful gmin step
Trying gmin =   1.0000E-04 Note: One successful gmin step
Trying gmin =   1.0000E-05 Note: One successful gmin step
Trying gmin =   1.0000E-06 Note: One successful gmin step
Trying gmin =   1.0000E-07 Note: One successful gmin step
Trying gmin =   1.0000E-08 Warning: Further gmin increment
Trying gmin =   5.6234E-08 Warning: Further gmin increment
Trying gmin =   8.6596E-08 Note: One successful gmin step
Trying gmin =   6.9783E-08 Note: One successful gmin step
Trying gmin =   5.0481E-08 Warning: Further gmin increment
Trying gmin =   6.4357E-08 Note: One successful gmin step
Trying gmin =   5.6998E-08 Warning: Further gmin increment
Trying gmin =   6.2432E-08 Note: One successful gmin step
Trying gmin =   5.9653E-08 Warning: Further gmin increment
Trying gmin =   6.1726E-08 Note: One successful gmin step
Trying gmin =   6.0681E-08 Warning: Further gmin increment
Trying gmin =   6.1463E-08 Note: One successful gmin step
Trying gmin =   6.1070E-08 Note: One successful gmin step
Trying gmin =   6.0487E-08 Warning: Further gmin increment
Trying gmin =   6.0924E-08 Note: One successful gmin step
Trying gmin =   6.0705E-08 Warning: Further gmin increment
Trying gmin =   6.0869E-08 Note: One successful gmin step
Trying gmin =   6.0787E-08 Note: One successful gmin step
Trying gmin =   6.0664E-08 Warning: Further gmin increment
Trying gmin =   6.0756E-08 Warning: Further gmin increment
Trying gmin =   6.0779E-08 Note: One successful gmin step
Trying gmin =   6.0768E-08 Note: One successful gmin step
Trying gmin =   6.0750E-08 Warning: Further gmin increment
Trying gmin =   6.0763E-08 Note: One successful gmin step
Trying gmin =   6.0757E-08 Warning: Further gmin increment
Trying gmin =   6.0762E-08 Note: One successful gmin step
Trying gmin =   6.0759E-08 Note: One successful gmin step
Trying gmin =   6.0756E-08 Warning: Further gmin increment
Trying gmin =   6.0758E-08 Note: One successful gmin step
Trying gmin =   6.0757E-08 Warning: Last gmin step failed
Warning: True gmin stepping failed
Note: Starting dynamic gmin stepping
Trying gmin =   1.0000E-03 Note: One successful gmin step
Trying gmin =   1.0000E-04 Note: One successful gmin step
Trying gmin =   1.0000E-05 Warning: Further gmin increment
Trying gmin =   5.6234E-05 Note: One successful gmin step
Trying gmin =   2.3714E-05 Note: One successful gmin step
Trying gmin =   6.4938E-06 Warning: Further gmin increment
Trying gmin =   1.7154E-05 Note: One successful gmin step
Trying gmin =   1.0554E-05 Warning: Further gmin increment
Trying gmin =   1.5193E-05 Note: One successful gmin step
Trying gmin =   1.2663E-05 Note: One successful gmin step
Trying gmin =   9.6358E-06 Note: One successful gmin step
Trying gmin =   6.3960E-06 Note: One successful gmin step
Trying gmin =   3.4589E-06 Note: One successful gmin step
Trying gmin =   1.8706E-06 Warning: Further gmin increment
Trying gmin =   2.9662E-06 Warning: Further gmin increment
Trying gmin =   3.3285E-06 Note: One successful gmin step
Trying gmin =   3.1421E-06 Note: One successful gmin step
Trying gmin =   2.8819E-06 Warning: Further gmin increment
Trying gmin =   3.0750E-06 Note: One successful gmin step
Trying gmin =   2.9769E-06 Warning: Further gmin increment
Trying gmin =   3.0502E-06 Note: One successful gmin step
Trying gmin =   3.0133E-06 Note: One successful gmin step
Trying gmin =   2.9589E-06 Note: One successful gmin step
Trying gmin =   2.8790E-06 Note: One successful gmin step
Trying gmin =   2.7633E-06 Note: One successful gmin step
Trying gmin =   2.5984E-06 Note: One successful gmin step
Trying gmin =   2.3692E-06 Note: One successful gmin step
Trying gmin =   2.0629E-06 Note: One successful gmin step
Trying gmin =   1.6760E-06 Note: One successful gmin step
Trying gmin =   1.2273E-06 Note: One successful gmin step
Trying gmin =   7.6914E-07 Note: One successful gmin step
Trying gmin =   3.8157E-07 Note: One successful gmin step
Trying gmin =   1.3333E-07 Note: One successful gmin step
Trying gmin =   2.7538E-08 Note: One successful gmin step
Trying gmin =   2.7538E-09 Note: One successful gmin step
Trying gmin =   2.7538E-10 Note: One successful gmin step
Trying gmin =   2.7538E-11 Note: One successful gmin step
Trying gmin =   2.7538E-12 Note: One successful gmin step
Trying gmin =   1.0000E-12 Note: One successful gmin step
Note: Dynamic gmin stepping completed
 Reference value :  2.80000e+00Note: Starting true gmin stepping
Trying gmin =   1.0000E-03 Note: One successful gmin step
Trying gmin =   1.0000E-04 Note: One successful gmin step
Trying gmin =   1.0000E-05 Note: One successful gmin step
Trying gmin =   1.0000E-06 Note: One successful gmin step
Trying gmin =   1.0000E-07 Note: One successful gmin step
Trying gmin =   1.0000E-08 Warning: Further gmin increment
Trying gmin =   5.6234E-08 Note: One successful gmin step
Trying gmin =   2.3714E-08 Note: One successful gmin step
Trying gmin =   6.4938E-09 Note: One successful gmin step
Trying gmin =   1.7783E-09 Note: One successful gmin step
Trying gmin =   2.5483E-10 Note: One successful gmin step
Trying gmin =   2.5483E-11 Note: One successful gmin step
Trying gmin =   2.5483E-12 Note: One successful gmin step
Trying gmin =   1.0000E-12 Note: One successful gmin step
Note: True gmin stepping completed
Note: Starting true gmin stepping
Trying gmin =   1.0000E-03 Note: One successful gmin step
Trying gmin =   1.0000E-04 Note: One successful gmin step
Trying gmin =   1.0000E-05 Note: One successful gmin step
Trying gmin =   1.0000E-06 Note: One successful gmin step
Trying gmin =   1.0000E-07 Note: One successful gmin step
Trying gmin =   1.0000E-08 Warning: Further gmin increment
Trying gmin =   5.6234E-08 Note: One successful gmin step
Trying gmin =   2.3714E-08 Note: One successful gmin step
Trying gmin =   6.4938E-09 Warning: Further gmin increment
Trying gmin =   1.7154E-08 Note: One successful gmin step
Trying gmin =   1.0554E-08 Note: One successful gmin step
Trying gmin =   5.0937E-09 Note: One successful gmin step
Trying gmin =   1.7077E-09 Note: One successful gmin step
Trying gmin =   3.3152E-10 Note: One successful gmin step
Trying gmin =   3.3152E-11 Note: One successful gmin step
Trying gmin =   3.3152E-12 Note: One successful gmin step
Trying gmin =   1.0000E-12 Note: One successful gmin step
Note: True gmin stepping completed
 Reference value :  1.18000e+00pm                  =  5.986509e+01
Doing analysis at TEMP = 85.000000 and TNOM = 27.000000


No. of Data Rows : 91
psrr100             =  -5.406709e+01
psrr100k            =  -2.517155e+01
Doing analysis at TEMP = 85.000000 and TNOM = 27.000000


No. of Data Rows : 86
temp_coeff = 1.540007e+02
Doing analysis at TEMP = 85.000000 and TNOM = 27.000000


No. of Data Rows : 141
vldo_sup_2          =  1.801553e+00
vldo_sup_2_8        =  1.803648e+00
line_reg = 2.618750e-03
Note: No ".plot", ".print", or ".fourier" lines; no simulations run
vin                 =  1.764121e+00
dropout = 1.210000e-04
