 Reference value :  0.00000e+00
No compatibility mode selected!


Circuit: * ldo netlist 

Doing analysis at TEMP = 27.000000 and TNOM = 27.000000


No. of Data Rows : 1
bg_out = 1.187553e+00
inn = 1.214923e+00
inp = 1.214920e+00
l1#branch = 0.000000e+00
ldo_out = 1.785762e+00
m.xm1.msky130_fd_pr__nfet_g5v0d10v5#body = 2.095815e-11
m.xm1.msky130_fd_pr__nfet_g5v0d10v5#dbody = 4.435713e-11
m.xm1.msky130_fd_pr__nfet_g5v0d10v5#sbody = 1.851730e-11
m.xm2.msky130_fd_pr__pfet_g5v0d10v5#body = 2.500000e+00
m.xm2.msky130_fd_pr__pfet_g5v0d10v5#dbody = 2.500000e+00
m.xm2.msky130_fd_pr__pfet_g5v0d10v5#sbody = 2.500000e+00
m.xm3.msky130_fd_pr__pfet_g5v0d10v5#body = 2.500000e+00
m.xm3.msky130_fd_pr__pfet_g5v0d10v5#dbody = 2.500000e+00
m.xm3.msky130_fd_pr__pfet_g5v0d10v5#sbody = 2.500000e+00
m.xm4.msky130_fd_pr__pfet_g5v0d10v5#body = 2.500000e+00
m.xm4.msky130_fd_pr__pfet_g5v0d10v5#dbody = 2.500000e+00
m.xm4.msky130_fd_pr__pfet_g5v0d10v5#sbody = 2.500000e+00
m.xm5.msky130_fd_pr__pfet_g5v0d10v5#body = 2.500000e+00
m.xm5.msky130_fd_pr__pfet_g5v0d10v5#dbody = 2.500000e+00
m.xm5.msky130_fd_pr__pfet_g5v0d10v5#sbody = 2.500000e+00
m.xm6.msky130_fd_pr__nfet_g5v0d10v5#body = 1.124493e-11
m.xm6.msky130_fd_pr__nfet_g5v0d10v5#dbody = 2.811232e-11
m.xm6.msky130_fd_pr__nfet_g5v0d10v5#sbody = 5.622470e-12
m.xm7.msky130_fd_pr__pfet_g5v0d10v5#body = 2.500000e+00
m.xm7.msky130_fd_pr__pfet_g5v0d10v5#dbody = 2.500000e+00
m.xm7.msky130_fd_pr__pfet_g5v0d10v5#sbody = 2.500000e+00
m.xm8.msky130_fd_pr__pfet_g5v0d10v5#body = 2.500000e+00
m.xm8.msky130_fd_pr__pfet_g5v0d10v5#dbody = 2.500000e+00
m.xm8.msky130_fd_pr__pfet_g5v0d10v5#sbody = 2.500000e+00
m.xm9.msky130_fd_pr__nfet_g5v0d10v5#body = 2.158388e-11
m.xm9.msky130_fd_pr__nfet_g5v0d10v5#dbody = 4.674094e-11
m.xm9.msky130_fd_pr__nfet_g5v0d10v5#sbody = 1.801068e-11
m.xm10.msky130_fd_pr__nfet_g5v0d10v5#body = 2.136674e-11
m.xm10.msky130_fd_pr__nfet_g5v0d10v5#dbody = 4.619810e-11
m.xm10.msky130_fd_pr__nfet_g5v0d10v5#sbody = 1.790212e-11
m.xm11.msky130_fd_pr__pfet_g5v0d10v5#body = 2.500000e+00
m.xm11.msky130_fd_pr__pfet_g5v0d10v5#dbody = 2.500000e+00
m.xm11.msky130_fd_pr__pfet_g5v0d10v5#sbody = 2.500000e+00
m.xm12.msky130_fd_pr__pfet_g5v0d10v5#body = 2.500000e+00
m.xm12.msky130_fd_pr__pfet_g5v0d10v5#dbody = 2.500000e+00
m.xm12.msky130_fd_pr__pfet_g5v0d10v5#sbody = 2.500000e+00
m.xm13.msky130_fd_pr__nfet_g5v0d10v5#body = 3.608015e-12
m.xm13.msky130_fd_pr__nfet_g5v0d10v5#dbody = 9.020026e-12
m.xm13.msky130_fd_pr__nfet_g5v0d10v5#sbody = 1.804018e-12
m.xm14.msky130_fd_pr__pfet_g5v0d10v5#body = 2.500000e+00
m.xm14.msky130_fd_pr__pfet_g5v0d10v5#dbody = 2.500000e+00
m.xm14.msky130_fd_pr__pfet_g5v0d10v5#sbody = 2.500000e+00
m.xm15.msky130_fd_pr__nfet_g5v0d10v5#body = 7.518827e-16
m.xm15.msky130_fd_pr__nfet_g5v0d10v5#dbody = 1.879641e-15
m.xm15.msky130_fd_pr__nfet_g5v0d10v5#sbody = 3.760073e-16
m.xm16.msky130_fd_pr__nfet_g5v0d10v5#body = 4.644519e-11
m.xm16.msky130_fd_pr__nfet_g5v0d10v5#dbody = 8.573124e-11
m.xm16.msky130_fd_pr__nfet_g5v0d10v5#sbody = 5.360432e-11
m.xm17.msky130_fd_pr__pfet_g5v0d10v5#body = 2.500000e+00
m.xm17.msky130_fd_pr__pfet_g5v0d10v5#dbody = 2.500000e+00
m.xm17.msky130_fd_pr__pfet_g5v0d10v5#sbody = 2.500000e+00
m.xm18.msky130_fd_pr__nfet_g5v0d10v5#body = 2.379888e-11
m.xm18.msky130_fd_pr__nfet_g5v0d10v5#dbody = 5.676673e-11
m.xm18.msky130_fd_pr__nfet_g5v0d10v5#sbody = 1.189945e-11
m.xm19.msky130_fd_pr__nfet_g5v0d10v5#body = 2.096311e-11
m.xm19.msky130_fd_pr__nfet_g5v0d10v5#dbody = 4.436954e-11
m.xm19.msky130_fd_pr__nfet_g5v0d10v5#sbody = 1.851978e-11
m.xm20.msky130_fd_pr__nfet_g5v0d10v5#body = 1.126437e-11
m.xm20.msky130_fd_pr__nfet_g5v0d10v5#dbody = 2.816090e-11
m.xm20.msky130_fd_pr__nfet_g5v0d10v5#sbody = 5.632195e-12
m.xm22.msky130_fd_pr__nfet_g5v0d10v5#body = 4.021828e-12
m.xm22.msky130_fd_pr__nfet_g5v0d10v5#dbody = 1.005456e-11
m.xm22.msky130_fd_pr__nfet_g5v0d10v5#sbody = 2.010918e-12
m.xm24.msky130_fd_pr__pfet_g5v0d10v5#body = 2.500000e+00
m.xm24.msky130_fd_pr__pfet_g5v0d10v5#dbody = 2.500000e+00
m.xm24.msky130_fd_pr__pfet_g5v0d10v5#sbody = 2.500000e+00
m.xm26.msky130_fd_pr__pfet_g5v0d10v5#body = 2.500000e+00
m.xm26.msky130_fd_pr__pfet_g5v0d10v5#dbody = 2.500000e+00
m.xm26.msky130_fd_pr__pfet_g5v0d10v5#sbody = 2.500000e+00
mir = 1.354777e+00
net1 = 7.192281e-01
net2 = 5.785684e-05
net3 = 7.788940e-01
net4 = 3.211831e-01
net5 = 1.355173e+00
net6 = 8.990313e-01
net7 = 7.788909e-01
net8 = 1.420352e+00
net9 = 1.437723e+00
net10 = 2.885123e-01
net11 = 1.794563e+00
net12 = 1.794563e+00
net13 = 0.000000e+00
out = 1.794563e+00
pos = 1.187710e+00
q.xq2.qsky130_fd_pr__pnp_05v5_w0p68l0p68#collcx = 2.150239e-03
q.xq3.qsky130_fd_pr__pnp_05v5_w0p68l0p68#collcx = 2.700846e-04
q.xq4.qsky130_fd_pr__pnp_05v5_w0p68l0p68#collcx = 2.700846e-04
q.xq8.qsky130_fd_pr__pnp_05v5_w0p68l0p68#collcx = 2.700846e-04
q.xq10.qsky130_fd_pr__pnp_05v5_w0p68l0p68#collcx = 2.700846e-04
q.xq12.qsky130_fd_pr__pnp_05v5_w0p68l0p68#collcx = 2.700846e-04
q.xq14.qsky130_fd_pr__pnp_05v5_w0p68l0p68#collcx = 2.700846e-04
q.xq16.qsky130_fd_pr__pnp_05v5_w0p68l0p68#collcx = 2.700846e-04
q.xq18.qsky130_fd_pr__pnp_05v5_w0p68l0p68#collcx = 2.700846e-04
vb = 9.010203e-01
vdd = 2.500000e+00
vs#branch = -1.71874e-04
vt#branch = 0.000000e+00
xc1.a = 0.000000e+00
xc1.b1 = 0.000000e+00
xc3.a = 1.794563e+00
xc3.b1 = 1.794563e+00
xr1.xsky130_fd_pr__res_xhigh_po_0p69.ra = 7.864071e-01
xr2.xsky130_fd_pr__res_xhigh_po_0p69.ra = 7.864101e-01
xr3.xsky130_fd_pr__res_xhigh_po_0p69.ra = 5.068654e-03
xr4.xsky130_fd_pr__res_xhigh_po_0p69.ra = 7.217714e-01
xr5.xsky130_fd_pr__res_xhigh_po_0p69.ra = 5.068632e-03
xr6.xsky130_fd_pr__res_xhigh_po_0p69.ra = 7.985908e-03
xr7.xsky130_fd_pr__res_xhigh_po_0p69.ra = 1.794563e+00
xr8.xsky130_fd_pr__res_xhigh_po_0p69.ra = 1.201000e+00
xr9.xsky130_fd_pr__res_xhigh_po_0p69.ra = 1.393466e-02
Doing analysis at TEMP = 27.000000 and TNOM = 27.000000


No. of Data Rows : 91
Note: Starting true gmin stepping
Trying gmin =   1.0000E-03 Note: One successful gmin step
Trying gmin =   1.0000E-04 Note: One successful gmin step
Trying gmin =   1.0000E-05 Note: One successful gmin step
Trying gmin =   1.0000E-06 Note: One successful gmin step
Trying gmin =   1.0000E-07 Note: One successful gmin step
Trying gmin =   1.0000E-08 Warning: Further gmin increment
Trying gmin =   5.6234E-08 Note: One successful gmin step
Trying gmin =   2.3714E-08 Warning: Further gmin increment
Trying gmin =   4.5316E-08 Note: One successful gmin step
Trying gmin =   3.2781E-08 Warning: Further gmin increment
Trying gmin =   4.1792E-08 Note: One successful gmin step
Trying gmin =   3.7013E-08 Note: One successful gmin step
Trying gmin =   3.2781E-08 Note: One successful gmin step
Trying gmin =   2.7323E-08 Note: One successful gmin step
Trying gmin =   2.0791E-08 Note: One successful gmin step
Trying gmin =   1.3800E-08 Note: One successful gmin step
Trying gmin =   7.4632E-09 Note: One successful gmin step
Trying gmin =   2.9681E-09 Note: One successful gmin step
Trying gmin =   7.4438E-10 Note: One successful gmin step
Trying gmin =   9.3493E-11 Note: One successful gmin step
Trying gmin =   9.3493E-12 Note: One successful gmin step
Trying gmin =   1.0000E-12 Note: One successful gmin step
Note: True gmin stepping completed
 Reference value :  2.80000e+00Note: Starting true gmin stepping
Trying gmin =   1.0000E-03 Note: One successful gmin step
Trying gmin =   1.0000E-04 Note: One successful gmin step
Trying gmin =   1.0000E-05 Note: One successful gmin step
Trying gmin =   1.0000E-06 Note: One successful gmin step
Trying gmin =   1.0000E-07 Note: One successful gmin step
Trying gmin =   1.0000E-08 Warning: Further gmin increment
Trying gmin =   5.6234E-08 Note: One successful gmin step
Trying gmin =   2.3714E-08 Note: One successful gmin step
Trying gmin =   1.0000E-08 Note: One successful gmin step
Trying gmin =   2.7384E-09 Warning: Further gmin increment
Trying gmin =   7.2339E-09 Note: One successful gmin step
Trying gmin =   4.4508E-09 Note: One successful gmin step
Trying gmin =   2.1480E-09 Note: One successful gmin step
Trying gmin =   7.2015E-10 Note: One successful gmin step
Trying gmin =   1.3980E-10 Note: One successful gmin step
Trying gmin =   1.3980E-11 Note: One successful gmin step
Trying gmin =   1.3980E-12 Note: One successful gmin step
Trying gmin =   1.0000E-12 Note: One successful gmin step
Note: True gmin stepping completed
 Reference value :  1.28000e+00Note: Starting true gmin stepping
Trying gmin =   1.0000E-03 Note: One successful gmin step
Trying gmin =   1.0000E-04 Note: One successful gmin step
Trying gmin =   1.0000E-05 Note: One successful gmin step
Trying gmin =   1.0000E-06 Note: One successful gmin step
Trying gmin =   1.0000E-07 Note: One successful gmin step
Trying gmin =   1.0000E-08 Warning: Further gmin increment
Trying gmin =   5.6234E-08 Note: One successful gmin step
Trying gmin =   2.3714E-08 Note: One successful gmin step
Trying gmin =   1.0000E-08 Note: One successful gmin step
Trying gmin =   2.7384E-09 Warning: Further gmin increment
Trying gmin =   7.2339E-09 Note: One successful gmin step
Trying gmin =   4.4508E-09 Warning: Further gmin increment
Trying gmin =   6.4068E-09 Note: One successful gmin step
Trying gmin =   5.3400E-09 Note: One successful gmin step
Trying gmin =   4.0634E-09 Note: One successful gmin step
Trying gmin =   2.6972E-09 Note: One successful gmin step
Trying gmin =   1.4586E-09 Note: One successful gmin step
Trying gmin =   5.8008E-10 Note: One successful gmin step
Trying gmin =   1.4548E-10 Note: One successful gmin step
Trying gmin =   1.8272E-11 Note: One successful gmin step
Trying gmin =   1.8272E-12 Note: One successful gmin step
Trying gmin =   1.0000E-12 Note: One successful gmin step
Note: True gmin stepping completed
 Reference value :  9.60000e-01pm                  =  5.119489e+01
Doing analysis at TEMP = 27.000000 and TNOM = 27.000000


No. of Data Rows : 91
psrr100             =  -8.082871e+01
psrr100k            =  -2.790689e+01
Doing analysis at TEMP = 27.000000 and TNOM = 27.000000


No. of Data Rows : 86
temp_coeff = 8.307683e+01
Doing analysis at TEMP = 27.000000 and TNOM = 27.000000


No. of Data Rows : 141
vldo_sup_2          =  1.785840e+00
vldo_sup_2_8        =  1.785750e+00
line_reg = 1.125000e-04
Note: No ".plot", ".print", or ".fourier" lines; no simulations run
vin                 =  1.764104e+00
dropout = 1.040000e-04
