 Reference value :  0.00000e+00
No compatibility mode selected!


Circuit: * ldo netlist 

Doing analysis at TEMP = 85.000000 and TNOM = 27.000000


No. of Data Rows : 1
bg_out = 1.196933e+00
inn = 1.143173e+00
inp = 1.143130e+00
l1#branch = 0.000000e+00
ldo_out = 1.800507e+00
m.xm1.msky130_fd_pr__nfet_g5v0d10v5#body = 2.532052e-11
m.xm1.msky130_fd_pr__nfet_g5v0d10v5#dbody = 4.458731e-11
m.xm1.msky130_fd_pr__nfet_g5v0d10v5#sbody = 3.137426e-11
m.xm2.msky130_fd_pr__pfet_g5v0d10v5#body = 2.100000e+00
m.xm2.msky130_fd_pr__pfet_g5v0d10v5#dbody = 2.100000e+00
m.xm2.msky130_fd_pr__pfet_g5v0d10v5#sbody = 2.100000e+00
m.xm3.msky130_fd_pr__pfet_g5v0d10v5#body = 2.100000e+00
m.xm3.msky130_fd_pr__pfet_g5v0d10v5#dbody = 2.100000e+00
m.xm3.msky130_fd_pr__pfet_g5v0d10v5#sbody = 2.100000e+00
m.xm4.msky130_fd_pr__pfet_g5v0d10v5#body = 2.100000e+00
m.xm4.msky130_fd_pr__pfet_g5v0d10v5#dbody = 2.100000e+00
m.xm4.msky130_fd_pr__pfet_g5v0d10v5#sbody = 2.100000e+00
m.xm5.msky130_fd_pr__pfet_g5v0d10v5#body = 2.100000e+00
m.xm5.msky130_fd_pr__pfet_g5v0d10v5#dbody = 2.100000e+00
m.xm5.msky130_fd_pr__pfet_g5v0d10v5#sbody = 2.100000e+00
m.xm6.msky130_fd_pr__nfet_g5v0d10v5#body = 1.904549e-11
m.xm6.msky130_fd_pr__nfet_g5v0d10v5#dbody = 4.761361e-11
m.xm6.msky130_fd_pr__nfet_g5v0d10v5#sbody = 9.522852e-12
m.xm7.msky130_fd_pr__pfet_g5v0d10v5#body = 2.100000e+00
m.xm7.msky130_fd_pr__pfet_g5v0d10v5#dbody = 2.100000e+00
m.xm7.msky130_fd_pr__pfet_g5v0d10v5#sbody = 2.100000e+00
m.xm8.msky130_fd_pr__pfet_g5v0d10v5#body = 2.100000e+00
m.xm8.msky130_fd_pr__pfet_g5v0d10v5#dbody = 2.100000e+00
m.xm8.msky130_fd_pr__pfet_g5v0d10v5#sbody = 2.100000e+00
m.xm9.msky130_fd_pr__nfet_g5v0d10v5#body = 2.356313e-11
m.xm9.msky130_fd_pr__nfet_g5v0d10v5#dbody = 4.285378e-11
m.xm9.msky130_fd_pr__nfet_g5v0d10v5#sbody = 2.783560e-11
m.xm10.msky130_fd_pr__nfet_g5v0d10v5#body = 2.335878e-11
m.xm10.msky130_fd_pr__nfet_g5v0d10v5#dbody = 4.234292e-11
m.xm10.msky130_fd_pr__nfet_g5v0d10v5#sbody = 2.773343e-11
m.xm11.msky130_fd_pr__pfet_g5v0d10v5#body = 2.100000e+00
m.xm11.msky130_fd_pr__pfet_g5v0d10v5#dbody = 2.100000e+00
m.xm11.msky130_fd_pr__pfet_g5v0d10v5#sbody = 2.100000e+00
m.xm12.msky130_fd_pr__pfet_g5v0d10v5#body = 2.100000e+00
m.xm12.msky130_fd_pr__pfet_g5v0d10v5#dbody = 2.100000e+00
m.xm12.msky130_fd_pr__pfet_g5v0d10v5#sbody = 2.100000e+00
m.xm13.msky130_fd_pr__nfet_g5v0d10v5#body = 6.379310e-12
m.xm13.msky130_fd_pr__nfet_g5v0d10v5#dbody = 1.594821e-11
m.xm13.msky130_fd_pr__nfet_g5v0d10v5#sbody = 3.189721e-12
m.xm14.msky130_fd_pr__pfet_g5v0d10v5#body = 2.100000e+00
m.xm14.msky130_fd_pr__pfet_g5v0d10v5#dbody = 2.100000e+00
m.xm14.msky130_fd_pr__pfet_g5v0d10v5#sbody = 2.100000e+00
m.xm15.msky130_fd_pr__nfet_g5v0d10v5#body = 4.864391e-16
m.xm15.msky130_fd_pr__nfet_g5v0d10v5#dbody = 1.216057e-15
m.xm15.msky130_fd_pr__nfet_g5v0d10v5#sbody = 2.432607e-16
m.xm16.msky130_fd_pr__nfet_g5v0d10v5#body = 5.102004e-11
m.xm16.msky130_fd_pr__nfet_g5v0d10v5#dbody = 8.849039e-11
m.xm16.msky130_fd_pr__nfet_g5v0d10v5#sbody = 6.456973e-11
m.xm17.msky130_fd_pr__pfet_g5v0d10v5#body = 2.100000e+00
m.xm17.msky130_fd_pr__pfet_g5v0d10v5#dbody = 2.100000e+00
m.xm17.msky130_fd_pr__pfet_g5v0d10v5#sbody = 2.100000e+00
m.xm18.msky130_fd_pr__nfet_g5v0d10v5#body = 1.842554e-11
m.xm18.msky130_fd_pr__nfet_g5v0d10v5#dbody = 4.606362e-11
m.xm18.msky130_fd_pr__nfet_g5v0d10v5#sbody = 9.212843e-12
m.xm19.msky130_fd_pr__nfet_g5v0d10v5#body = 2.536541e-11
m.xm19.msky130_fd_pr__nfet_g5v0d10v5#dbody = 4.469952e-11
m.xm19.msky130_fd_pr__nfet_g5v0d10v5#sbody = 3.139670e-11
m.xm20.msky130_fd_pr__nfet_g5v0d10v5#body = 1.232185e-11
m.xm20.msky130_fd_pr__nfet_g5v0d10v5#dbody = 3.080454e-11
m.xm20.msky130_fd_pr__nfet_g5v0d10v5#sbody = 6.160994e-12
m.xm22.msky130_fd_pr__nfet_g5v0d10v5#body = 1.265243e-11
m.xm22.msky130_fd_pr__nfet_g5v0d10v5#dbody = 3.163097e-11
m.xm22.msky130_fd_pr__nfet_g5v0d10v5#sbody = 6.326321e-12
m.xm24.msky130_fd_pr__pfet_g5v0d10v5#body = 2.100000e+00
m.xm24.msky130_fd_pr__pfet_g5v0d10v5#dbody = 2.100000e+00
m.xm24.msky130_fd_pr__pfet_g5v0d10v5#sbody = 2.100000e+00
m.xm26.msky130_fd_pr__pfet_g5v0d10v5#body = 2.100000e+00
m.xm26.msky130_fd_pr__pfet_g5v0d10v5#dbody = 2.100000e+00
m.xm26.msky130_fd_pr__pfet_g5v0d10v5#sbody = 2.100000e+00
mir = 8.578671e-01
net1 = 6.283729e-01
net2 = 9.408399e-07
net3 = 7.016513e-01
net4 = 3.293659e-01
net5 = 8.614579e-01
net6 = 8.407763e-01
net7 = 7.016064e-01
net8 = 9.391482e-01
net9 = 9.554957e-01
net10 = 3.547751e-01
net11 = 1.318464e+00
net12 = 1.318464e+00
net13 = 0.000000e+00
out = 1.318464e+00
pos = 1.197168e+00
q.xq2.qsky130_fd_pr__pnp_05v5_w0p68l0p68#collcx = 2.838729e-03
q.xq3.qsky130_fd_pr__pnp_05v5_w0p68l0p68#collcx = 3.581272e-04
q.xq4.qsky130_fd_pr__pnp_05v5_w0p68l0p68#collcx = 3.581272e-04
q.xq8.qsky130_fd_pr__pnp_05v5_w0p68l0p68#collcx = 3.581272e-04
q.xq10.qsky130_fd_pr__pnp_05v5_w0p68l0p68#collcx = 3.581272e-04
q.xq12.qsky130_fd_pr__pnp_05v5_w0p68l0p68#collcx = 3.581272e-04
q.xq14.qsky130_fd_pr__pnp_05v5_w0p68l0p68#collcx = 3.581272e-04
q.xq16.qsky130_fd_pr__pnp_05v5_w0p68l0p68#collcx = 3.581272e-04
q.xq18.qsky130_fd_pr__pnp_05v5_w0p68l0p68#collcx = 3.581272e-04
vb = 8.301741e-01
vdd = 2.100000e+00
vs#branch = -1.82825e-04
vt#branch = 0.000000e+00
xc1.a = 0.000000e+00
xc1.b1 = 0.000000e+00
xc3.a = 1.318464e+00
xc3.b1 = 1.318464e+00
xr1.xsky130_fd_pr__res_xhigh_po_0p69.ra = 7.098362e-01
xr2.xsky130_fd_pr__res_xhigh_po_0p69.ra = 7.098810e-01
xr3.xsky130_fd_pr__res_xhigh_po_0p69.ra = 4.908306e-03
xr4.xsky130_fd_pr__res_xhigh_po_0p69.ra = 6.317404e-01
xr5.xsky130_fd_pr__res_xhigh_po_0p69.ra = 4.907974e-03
xr6.xsky130_fd_pr__res_xhigh_po_0p69.ra = 8.713961e-03
xr7.xsky130_fd_pr__res_xhigh_po_0p69.ra = 1.318464e+00
xr8.xsky130_fd_pr__res_xhigh_po_0p69.ra = 1.211661e+00
xr9.xsky130_fd_pr__res_xhigh_po_0p69.ra = 1.519976e-02
Doing analysis at TEMP = 85.000000 and TNOM = 27.000000


No. of Data Rows : 91
Note: Starting true gmin stepping
Trying gmin =   1.0000E-03 Note: One successful gmin step
Trying gmin =   1.0000E-04 Note: One successful gmin step
Trying gmin =   1.0000E-05 Note: One successful gmin step
Trying gmin =   1.0000E-06 Note: One successful gmin step
Trying gmin =   1.0000E-07 Note: One successful gmin step
Trying gmin =   1.0000E-08 Warning: Further gmin increment
Trying gmin =   5.6234E-08 Warning: Further gmin increment
Trying gmin =   8.6596E-08 Note: One successful gmin step
Trying gmin =   6.9783E-08 Note: One successful gmin step
Trying gmin =   5.6234E-08 Note: One successful gmin step
Trying gmin =   4.0679E-08 Note: One successful gmin step
Trying gmin =   2.5029E-08 Note: One successful gmin step
Trying gmin =   1.2079E-08 Note: One successful gmin step
Trying gmin =   4.0497E-09 Note: One successful gmin step
Trying gmin =   7.8615E-10 Note: One successful gmin step
Trying gmin =   7.8615E-11 Note: One successful gmin step
Trying gmin =   7.8615E-12 Note: One successful gmin step
Trying gmin =   1.0000E-12 Note: One successful gmin step
Note: True gmin stepping completed
 Reference value :  1.44000e+00Note: Starting true gmin stepping
Trying gmin =   1.0000E-03 Note: One successful gmin step
Trying gmin =   1.0000E-04 Note: One successful gmin step
Trying gmin =   1.0000E-05 Note: One successful gmin step
Trying gmin =   1.0000E-06 Note: One successful gmin step
Trying gmin =   1.0000E-07 Note: One successful gmin step
Trying gmin =   1.0000E-08 Warning: Further gmin increment
Trying gmin =   5.6234E-08 Warning: Further gmin increment
Trying gmin =   8.6596E-08 Note: One successful gmin step
Trying gmin =   6.9783E-08 Note: One successful gmin step
Trying gmin =   5.6234E-08 Note: One successful gmin step
Trying gmin =   4.0679E-08 Note: One successful gmin step
Trying gmin =   2.5029E-08 Note: One successful gmin step
Trying gmin =   1.2079E-08 Note: One successful gmin step
Trying gmin =   4.0497E-09 Note: One successful gmin step
Trying gmin =   7.8615E-10 Note: One successful gmin step
Trying gmin =   7.8615E-11 Note: One successful gmin step
Trying gmin =   7.8615E-12 Note: One successful gmin step
Trying gmin =   1.0000E-12 Note: One successful gmin step
Note: True gmin stepping completed
Note: Starting true gmin stepping
Trying gmin =   1.0000E-03 Note: One successful gmin step
Trying gmin =   1.0000E-04 Note: One successful gmin step
Trying gmin =   1.0000E-05 Note: One successful gmin step
Trying gmin =   1.0000E-06 Note: One successful gmin step
Trying gmin =   1.0000E-07 Note: One successful gmin step
Trying gmin =   1.0000E-08 Warning: Further gmin increment
Trying gmin =   5.6234E-08 Note: One successful gmin step
Trying gmin =   2.3714E-08 Note: One successful gmin step
Trying gmin =   1.0000E-08 Note: One successful gmin step
Trying gmin =   2.7384E-09 Note: One successful gmin step
Trying gmin =   3.9242E-10 Note: One successful gmin step
Trying gmin =   3.9242E-11 Note: One successful gmin step
Trying gmin =   3.9242E-12 Note: One successful gmin step
Trying gmin =   1.0000E-12 Note: One successful gmin step
Note: True gmin stepping completed
 Reference value :  1.26000e+00pm                  =  5.406917e+01
Doing analysis at TEMP = 85.000000 and TNOM = 27.000000


No. of Data Rows : 91
psrr100             =  -4.677904e+01
psrr100k            =  -2.660861e+01
Doing analysis at TEMP = 85.000000 and TNOM = 27.000000


No. of Data Rows : 86
temp_coeff = 9.389265e+01
Doing analysis at TEMP = 85.000000 and TNOM = 27.000000


No. of Data Rows : 141
vldo_sup_2          =  1.799964e+00
vldo_sup_2_8        =  1.802186e+00
line_reg = 2.777500e-03
Note: No ".plot", ".print", or ".fourier" lines; no simulations run
vin                 =  1.764178e+00
dropout = 1.780000e-04
