 Reference value :  0.00000e+00
No compatibility mode selected!


Circuit: * ldo netlist 

Doing analysis at TEMP = 27.000000 and TNOM = 27.000000


No. of Data Rows : 1
bg_out = 1.195702e+00
inn = 1.228740e+00
inp = 1.228699e+00
l1#branch = 0.000000e+00
ldo_out = 1.798077e+00
m.xm1.msky130_fd_pr__nfet_g5v0d10v5#body = 1.593768e-11
m.xm1.msky130_fd_pr__nfet_g5v0d10v5#dbody = 3.338735e-11
m.xm1.msky130_fd_pr__nfet_g5v0d10v5#sbody = 1.442570e-11
m.xm2.msky130_fd_pr__pfet_g5v0d10v5#body = 2.300000e+00
m.xm2.msky130_fd_pr__pfet_g5v0d10v5#dbody = 2.300000e+00
m.xm2.msky130_fd_pr__pfet_g5v0d10v5#sbody = 2.300000e+00
m.xm3.msky130_fd_pr__pfet_g5v0d10v5#body = 2.300000e+00
m.xm3.msky130_fd_pr__pfet_g5v0d10v5#dbody = 2.300000e+00
m.xm3.msky130_fd_pr__pfet_g5v0d10v5#sbody = 2.300000e+00
m.xm4.msky130_fd_pr__pfet_g5v0d10v5#body = 2.300000e+00
m.xm4.msky130_fd_pr__pfet_g5v0d10v5#dbody = 2.300000e+00
m.xm4.msky130_fd_pr__pfet_g5v0d10v5#sbody = 2.300000e+00
m.xm5.msky130_fd_pr__pfet_g5v0d10v5#body = 2.300000e+00
m.xm5.msky130_fd_pr__pfet_g5v0d10v5#dbody = 2.300000e+00
m.xm5.msky130_fd_pr__pfet_g5v0d10v5#sbody = 2.300000e+00
m.xm6.msky130_fd_pr__nfet_g5v0d10v5#body = 1.218362e-11
m.xm6.msky130_fd_pr__nfet_g5v0d10v5#dbody = 3.045903e-11
m.xm6.msky130_fd_pr__nfet_g5v0d10v5#sbody = 6.091812e-12
m.xm7.msky130_fd_pr__pfet_g5v0d10v5#body = 2.300000e+00
m.xm7.msky130_fd_pr__pfet_g5v0d10v5#dbody = 2.300000e+00
m.xm7.msky130_fd_pr__pfet_g5v0d10v5#sbody = 2.300000e+00
m.xm8.msky130_fd_pr__pfet_g5v0d10v5#body = 2.300000e+00
m.xm8.msky130_fd_pr__pfet_g5v0d10v5#dbody = 2.300000e+00
m.xm8.msky130_fd_pr__pfet_g5v0d10v5#sbody = 2.300000e+00
m.xm9.msky130_fd_pr__nfet_g5v0d10v5#body = 1.661869e-11
m.xm9.msky130_fd_pr__nfet_g5v0d10v5#dbody = 3.606338e-11
m.xm9.msky130_fd_pr__nfet_g5v0d10v5#sbody = 1.379269e-11
m.xm10.msky130_fd_pr__nfet_g5v0d10v5#body = 1.637008e-11
m.xm10.msky130_fd_pr__nfet_g5v0d10v5#dbody = 3.544185e-11
m.xm10.msky130_fd_pr__nfet_g5v0d10v5#sbody = 1.366838e-11
m.xm11.msky130_fd_pr__pfet_g5v0d10v5#body = 2.300000e+00
m.xm11.msky130_fd_pr__pfet_g5v0d10v5#dbody = 2.300000e+00
m.xm11.msky130_fd_pr__pfet_g5v0d10v5#sbody = 2.300000e+00
m.xm12.msky130_fd_pr__pfet_g5v0d10v5#body = 2.300000e+00
m.xm12.msky130_fd_pr__pfet_g5v0d10v5#dbody = 2.300000e+00
m.xm12.msky130_fd_pr__pfet_g5v0d10v5#sbody = 2.300000e+00
m.xm13.msky130_fd_pr__nfet_g5v0d10v5#body = 2.740313e-12
m.xm13.msky130_fd_pr__nfet_g5v0d10v5#dbody = 6.850773e-12
m.xm13.msky130_fd_pr__nfet_g5v0d10v5#sbody = 1.370166e-12
m.xm14.msky130_fd_pr__pfet_g5v0d10v5#body = 2.300000e+00
m.xm14.msky130_fd_pr__pfet_g5v0d10v5#dbody = 2.300000e+00
m.xm14.msky130_fd_pr__pfet_g5v0d10v5#sbody = 2.300000e+00
m.xm15.msky130_fd_pr__nfet_g5v0d10v5#body = 1.168170e-16
m.xm15.msky130_fd_pr__nfet_g5v0d10v5#dbody = 2.920370e-16
m.xm15.msky130_fd_pr__nfet_g5v0d10v5#sbody = 5.841399e-17
m.xm16.msky130_fd_pr__nfet_g5v0d10v5#body = 4.411798e-11
m.xm16.msky130_fd_pr__nfet_g5v0d10v5#dbody = 7.956773e-11
m.xm16.msky130_fd_pr__nfet_g5v0d10v5#sbody = 5.278623e-11
m.xm17.msky130_fd_pr__pfet_g5v0d10v5#body = 2.300000e+00
m.xm17.msky130_fd_pr__pfet_g5v0d10v5#dbody = 2.300000e+00
m.xm17.msky130_fd_pr__pfet_g5v0d10v5#sbody = 2.300000e+00
m.xm18.msky130_fd_pr__nfet_g5v0d10v5#body = 1.786209e-11
m.xm18.msky130_fd_pr__nfet_g5v0d10v5#dbody = 4.465181e-11
m.xm18.msky130_fd_pr__nfet_g5v0d10v5#sbody = 8.931059e-12
m.xm19.msky130_fd_pr__nfet_g5v0d10v5#body = 1.599878e-11
m.xm19.msky130_fd_pr__nfet_g5v0d10v5#dbody = 3.354009e-11
m.xm19.msky130_fd_pr__nfet_g5v0d10v5#sbody = 1.445624e-11
m.xm20.msky130_fd_pr__nfet_g5v0d10v5#body = 1.275271e-11
m.xm20.msky130_fd_pr__nfet_g5v0d10v5#dbody = 3.188176e-11
m.xm20.msky130_fd_pr__nfet_g5v0d10v5#sbody = 6.376366e-12
m.xm22.msky130_fd_pr__nfet_g5v0d10v5#body = 3.231141e-12
m.xm22.msky130_fd_pr__nfet_g5v0d10v5#dbody = 8.077847e-12
m.xm22.msky130_fd_pr__nfet_g5v0d10v5#sbody = 1.615575e-12
m.xm24.msky130_fd_pr__pfet_g5v0d10v5#body = 2.300000e+00
m.xm24.msky130_fd_pr__pfet_g5v0d10v5#dbody = 2.300000e+00
m.xm24.msky130_fd_pr__pfet_g5v0d10v5#sbody = 2.300000e+00
m.xm26.msky130_fd_pr__pfet_g5v0d10v5#body = 2.300000e+00
m.xm26.msky130_fd_pr__pfet_g5v0d10v5#dbody = 2.300000e+00
m.xm26.msky130_fd_pr__pfet_g5v0d10v5#sbody = 2.300000e+00
mir = 1.016391e+00
net1 = 7.305943e-01
net2 = 8.987624e-06
net3 = 7.898437e-01
net4 = 2.579248e-01
net5 = 1.021279e+00
net6 = 9.741227e-01
net7 = 7.898015e-01
net8 = 1.090032e+00
net9 = 1.109921e+00
net10 = 2.190928e-01
net11 = 1.428699e+00
net12 = 1.428699e+00
net13 = 0.000000e+00
out = 1.428699e+00
pos = 1.195899e+00
q.xq2.qsky130_fd_pr__pnp_05v5_w0p68l0p68#collcx = 1.951959e-03
q.xq3.qsky130_fd_pr__pnp_05v5_w0p68l0p68#collcx = 2.473456e-04
q.xq4.qsky130_fd_pr__pnp_05v5_w0p68l0p68#collcx = 2.473456e-04
q.xq8.qsky130_fd_pr__pnp_05v5_w0p68l0p68#collcx = 2.473456e-04
q.xq10.qsky130_fd_pr__pnp_05v5_w0p68l0p68#collcx = 2.473456e-04
q.xq12.qsky130_fd_pr__pnp_05v5_w0p68l0p68#collcx = 2.473456e-04
q.xq14.qsky130_fd_pr__pnp_05v5_w0p68l0p68#collcx = 2.473456e-04
q.xq16.qsky130_fd_pr__pnp_05v5_w0p68l0p68#collcx = 2.473456e-04
q.xq18.qsky130_fd_pr__pnp_05v5_w0p68l0p68#collcx = 2.473456e-04
vb = 1.020084e+00
vdd = 2.300000e+00
vs#branch = -1.70823e-04
vt#branch = 0.000000e+00
xc1.a = 0.000000e+00
xc1.b1 = 0.000000e+00
xc3.a = 1.428699e+00
xc3.b1 = 1.428699e+00
xr1.xsky130_fd_pr__res_xhigh_po_0p69.ra = 7.973685e-01
xr2.xsky130_fd_pr__res_xhigh_po_0p69.ra = 7.974107e-01
xr3.xsky130_fd_pr__res_xhigh_po_0p69.ra = 5.144599e-03
xr4.xsky130_fd_pr__res_xhigh_po_0p69.ra = 7.331183e-01
xr5.xsky130_fd_pr__res_xhigh_po_0p69.ra = 5.144306e-03
xr6.xsky130_fd_pr__res_xhigh_po_0p69.ra = 8.045595e-03
xr7.xsky130_fd_pr__res_xhigh_po_0p69.ra = 1.428699e+00
xr8.xsky130_fd_pr__res_xhigh_po_0p69.ra = 1.209285e+00
xr9.xsky130_fd_pr__res_xhigh_po_0p69.ra = 1.403926e-02
Doing analysis at TEMP = 27.000000 and TNOM = 27.000000


No. of Data Rows : 91
Note: Starting true gmin stepping
Trying gmin =   1.0000E-03 Note: One successful gmin step
Trying gmin =   1.0000E-04 Note: One successful gmin step
Trying gmin =   1.0000E-05 Note: One successful gmin step
Trying gmin =   1.0000E-06 Note: One successful gmin step
Trying gmin =   1.0000E-07 Note: One successful gmin step
Trying gmin =   1.0000E-08 Warning: Further gmin increment
Trying gmin =   5.6234E-08 Warning: Further gmin increment
Trying gmin =   8.6596E-08 Note: One successful gmin step
Trying gmin =   6.9783E-08 Note: One successful gmin step
Trying gmin =   5.0481E-08 Warning: Further gmin increment
Trying gmin =   6.4357E-08 Warning: Further gmin increment
Trying gmin =   6.8385E-08 Note: One successful gmin step
Trying gmin =   6.6340E-08 Note: One successful gmin step
Trying gmin =   6.3387E-08 Warning: Further gmin increment
Trying gmin =   6.5589E-08 Warning: Further gmin increment
Trying gmin =   6.6152E-08 Note: One successful gmin step
Trying gmin =   6.5870E-08 Note: One successful gmin step
Trying gmin =   6.5450E-08 Warning: Further gmin increment
Trying gmin =   6.5765E-08 Note: One successful gmin step
Trying gmin =   6.5607E-08 Warning: Further gmin increment
Trying gmin =   6.5725E-08 Note: One successful gmin step
Trying gmin =   6.5666E-08 Warning: Further gmin increment
Trying gmin =   6.5710E-08 Warning: Further gmin increment
Trying gmin =   6.5721E-08 Note: One successful gmin step
Trying gmin =   6.5716E-08 Warning: Further gmin increment
Trying gmin =   6.5720E-08 Note: One successful gmin step
Trying gmin =   6.5718E-08 Warning: Last gmin step failed
Warning: True gmin stepping failed
Note: Starting dynamic gmin stepping
Trying gmin =   1.0000E-03 Note: One successful gmin step
Trying gmin =   1.0000E-04 Note: One successful gmin step
Trying gmin =   1.0000E-05 Warning: Further gmin increment
Trying gmin =   5.6234E-05 Note: One successful gmin step
Trying gmin =   2.3714E-05 Note: One successful gmin step
Trying gmin =   6.4938E-06 Warning: Further gmin increment
Trying gmin =   1.7154E-05 Note: One successful gmin step
Trying gmin =   1.0554E-05 Warning: Further gmin increment
Trying gmin =   1.5193E-05 Note: One successful gmin step
Trying gmin =   1.2663E-05 Note: One successful gmin step
Trying gmin =   9.6358E-06 Warning: Further gmin increment
Trying gmin =   1.1827E-05 Warning: Further gmin increment
Trying gmin =   1.2449E-05 Note: One successful gmin step
Trying gmin =   1.2134E-05 Note: One successful gmin step
Trying gmin =   1.1677E-05 Note: One successful gmin step
Trying gmin =   1.1023E-05 Note: One successful gmin step
Trying gmin =   1.0110E-05 Note: One successful gmin step
Trying gmin =   8.8803E-06 Note: One successful gmin step
Trying gmin =   7.3107E-06 Note: One successful gmin step
Trying gmin =   5.4608E-06 Note: One successful gmin step
Trying gmin =   3.5253E-06 Note: One successful gmin step
Trying gmin =   1.8286E-06 Note: One successful gmin step
Trying gmin =   6.8309E-07 Note: One successful gmin step
Trying gmin =   1.5597E-07 Warning: Further gmin increment
Trying gmin =   4.7219E-07 Note: One successful gmin step
Trying gmin =   2.7138E-07 Warning: Further gmin increment
Trying gmin =   4.1113E-07 Note: One successful gmin step
Trying gmin =   3.3402E-07 Note: One successful gmin step
Trying gmin =   2.4461E-07 Warning: Further gmin increment
Trying gmin =   3.0900E-07 Note: One successful gmin step
Trying gmin =   2.7492E-07 Warning: Further gmin increment
Trying gmin =   3.0010E-07 Warning: Further gmin increment
Trying gmin =   3.0675E-07 Note: One successful gmin step
Trying gmin =   3.0341E-07 Warning: Further gmin increment
Trying gmin =   3.0591E-07 Warning: Further gmin increment
Trying gmin =   3.0654E-07 Warning: Further gmin increment
Trying gmin =   3.0669E-07 Note: One successful gmin step
Trying gmin =   3.0662E-07 Note: One successful gmin step
Trying gmin =   3.0650E-07 Warning: Further gmin increment
Trying gmin =   3.0659E-07 Note: One successful gmin step
Trying gmin =   3.0654E-07 Warning: Further gmin increment
Trying gmin =   3.0658E-07 Warning: Last gmin step failed
Warning: Dynamic gmin stepping failed
Note: Starting source stepping
Supplies reduced to   0.0000% Note: One successful source step
Supplies reduced to   0.1000% Note: One successful source step
Supplies reduced to   0.2000% Note: One successful source step
Supplies reduced to   0.3500% Note: One successful source step
Supplies reduced to   0.5750% Note: One successful source step
Supplies reduced to   0.9125% Note: One successful source step
Supplies reduced to   1.4188% Note: One successful source step
Supplies reduced to   2.1781% Note: One successful source step
Supplies reduced to   3.3172% Note: One successful source step
Supplies reduced to   5.0258% Note: One successful source step
Supplies reduced to   7.5887% Note: One successful source step
Supplies reduced to  11.4330% Note: One successful source step
Supplies reduced to  17.1995% Note: One successful source step
Supplies reduced to  25.8493% Note: One successful source step
Supplies reduced to  38.8239% Supplies reduced to  25.8493% Note: One successful source step
Supplies reduced to  26.8493% Note: One successful source step
Supplies reduced to  28.3493% Note: One successful source step
Supplies reduced to  30.5993% Note: One successful source step
Supplies reduced to  33.9743% Note: One successful source step
Supplies reduced to  39.0368% Note: One successful source step
Supplies reduced to  46.6305% Note: One successful source step
Supplies reduced to  58.0211% Note: One successful source step
Supplies reduced to  69.4118% Supplies reduced to  58.0211% Note: One successful source step
Supplies reduced to  59.0211% Note: One successful source step
Supplies reduced to  60.5211% Note: One successful source step
Supplies reduced to  62.7711% Note: One successful source step
Supplies reduced to  66.1461% Note: One successful source step
Supplies reduced to  71.2086% Supplies reduced to  66.1461% Note: One successful source step
Supplies reduced to  66.9055% Note: One successful source step
Supplies reduced to  68.0446% Note: One successful source step
Supplies reduced to  69.7532% Supplies reduced to  68.0446% Note: One successful source step
Supplies reduced to  68.3009% Note: One successful source step
Supplies reduced to  68.6853% Note: One successful source step
Supplies reduced to  69.2620% Note: One successful source step
Supplies reduced to  70.1269% Supplies reduced to  69.2620% Note: One successful source step
Supplies reduced to  69.3917% Supplies reduced to  69.2620% Note: One successful source step
Supplies reduced to  69.2814% Note: One successful source step
Supplies reduced to  69.3106% Supplies reduced to  69.2814% Note: One successful source step
Supplies reduced to  69.2858% Supplies reduced to  69.2814% Note: One successful source step
Supplies reduced to  69.2821% Note: One successful source step
Supplies reduced to  69.2831% Note: One successful source step
Supplies reduced to  69.2845% Note: One successful source step
Supplies reduced to  69.2868% Supplies reduced to  69.2845% Note: One successful source step
Supplies reduced to  69.2849% Note: One successful source step
Supplies reduced to  69.2854% Note: One successful source step
Supplies reduced to  69.2861% Supplies reduced to  69.2854% Note: One successful source step
Supplies reduced to  69.2855% Note: One successful source step
Supplies reduced to  69.2856% Note: One successful source step
Supplies reduced to  69.2859% Supplies reduced to  69.2856% Note: One successful source step
Supplies reduced to  69.2857% Warning: source stepping failed
doAnalyses: Too many iterations without convergence

dc simulation(s) aborted
Error(parse.c--checkvalid): vldo_sup_2_8: zero length vector.
Error: RHS "abs((vldo_sup_2_8-vldo_sup_2)/0.8)" invalid
Error(parse.c--checkvalid): line_reg: zero length vector.
Error(parse.c--checkvalid): vin: zero length vector.
Error: RHS "vin-1.764" invalid
Error(parse.c--checkvalid): dropout: zero length vector.
Error: no such vector dropout
Note: No ".plot", ".print", or ".fourier" lines; no simulations run
pm                  =  5.184021e+01
Doing analysis at TEMP = 27.000000 and TNOM = 27.000000


No. of Data Rows : 91
psrr100             =  -8.408946e+01
psrr100k            =  -2.737038e+01
Doing analysis at TEMP = 27.000000 and TNOM = 27.000000


No. of Data Rows : 86
temp_coeff = 1.147935e+02
Doing analysis at TEMP = 27.000000 and TNOM = 27.000000


Error: measure  vldo_sup_2  (AT) : out of interval
 meas dc vldo_sup_2 find ldo_out at=2 failed!


Error: measure  vldo_sup_2_8  (AT) : out of interval
 meas dc vldo_sup_2_8 find ldo_out at=2.8 failed!


Error: measure  vin  (WHEN) : out of interval
 meas dc vin when v(ldo_out)=1.764 failed!

