 Reference value :  0.00000e+00
No compatibility mode selected!


Circuit: * ldo netlist 

Doing analysis at TEMP = 27.000000 and TNOM = 27.000000


No. of Data Rows : 1
bg_out = 1.187563e+00
inn = 1.214884e+00
inp = 1.214873e+00
l1#branch = 0.000000e+00
ldo_out = 1.785785e+00
m.xm1.msky130_fd_pr__nfet_g5v0d10v5#body = 1.843373e-11
m.xm1.msky130_fd_pr__nfet_g5v0d10v5#dbody = 3.806652e-11
m.xm1.msky130_fd_pr__nfet_g5v0d10v5#sbody = 1.723467e-11
m.xm2.msky130_fd_pr__pfet_g5v0d10v5#body = 2.300000e+00
m.xm2.msky130_fd_pr__pfet_g5v0d10v5#dbody = 2.300000e+00
m.xm2.msky130_fd_pr__pfet_g5v0d10v5#sbody = 2.300000e+00
m.xm3.msky130_fd_pr__pfet_g5v0d10v5#body = 2.300000e+00
m.xm3.msky130_fd_pr__pfet_g5v0d10v5#dbody = 2.300000e+00
m.xm3.msky130_fd_pr__pfet_g5v0d10v5#sbody = 2.300000e+00
m.xm4.msky130_fd_pr__pfet_g5v0d10v5#body = 2.300000e+00
m.xm4.msky130_fd_pr__pfet_g5v0d10v5#dbody = 2.300000e+00
m.xm4.msky130_fd_pr__pfet_g5v0d10v5#sbody = 2.300000e+00
m.xm5.msky130_fd_pr__pfet_g5v0d10v5#body = 2.300000e+00
m.xm5.msky130_fd_pr__pfet_g5v0d10v5#dbody = 2.300000e+00
m.xm5.msky130_fd_pr__pfet_g5v0d10v5#sbody = 2.300000e+00
m.xm6.msky130_fd_pr__nfet_g5v0d10v5#body = 1.124571e-11
m.xm6.msky130_fd_pr__nfet_g5v0d10v5#dbody = 2.811428e-11
m.xm6.msky130_fd_pr__nfet_g5v0d10v5#sbody = 5.622862e-12
m.xm7.msky130_fd_pr__pfet_g5v0d10v5#body = 2.300000e+00
m.xm7.msky130_fd_pr__pfet_g5v0d10v5#dbody = 2.300000e+00
m.xm7.msky130_fd_pr__pfet_g5v0d10v5#sbody = 2.300000e+00
m.xm8.msky130_fd_pr__pfet_g5v0d10v5#body = 2.300000e+00
m.xm8.msky130_fd_pr__pfet_g5v0d10v5#dbody = 2.300000e+00
m.xm8.msky130_fd_pr__pfet_g5v0d10v5#sbody = 2.300000e+00
m.xm9.msky130_fd_pr__nfet_g5v0d10v5#body = 1.907371e-11
m.xm9.msky130_fd_pr__nfet_g5v0d10v5#dbody = 4.048493e-11
m.xm9.msky130_fd_pr__nfet_g5v0d10v5#sbody = 1.673619e-11
m.xm10.msky130_fd_pr__nfet_g5v0d10v5#body = 1.886915e-11
m.xm10.msky130_fd_pr__nfet_g5v0d10v5#dbody = 3.997353e-11
m.xm10.msky130_fd_pr__nfet_g5v0d10v5#sbody = 1.663392e-11
m.xm11.msky130_fd_pr__pfet_g5v0d10v5#body = 2.300000e+00
m.xm11.msky130_fd_pr__pfet_g5v0d10v5#dbody = 2.300000e+00
m.xm11.msky130_fd_pr__pfet_g5v0d10v5#sbody = 2.300000e+00
m.xm12.msky130_fd_pr__pfet_g5v0d10v5#body = 2.300000e+00
m.xm12.msky130_fd_pr__pfet_g5v0d10v5#dbody = 2.300000e+00
m.xm12.msky130_fd_pr__pfet_g5v0d10v5#sbody = 2.300000e+00
m.xm13.msky130_fd_pr__nfet_g5v0d10v5#body = 3.598312e-12
m.xm13.msky130_fd_pr__nfet_g5v0d10v5#dbody = 8.995769e-12
m.xm13.msky130_fd_pr__nfet_g5v0d10v5#sbody = 1.799166e-12
m.xm14.msky130_fd_pr__pfet_g5v0d10v5#body = 2.300000e+00
m.xm14.msky130_fd_pr__pfet_g5v0d10v5#dbody = 2.300000e+00
m.xm14.msky130_fd_pr__pfet_g5v0d10v5#sbody = 2.300000e+00
m.xm15.msky130_fd_pr__nfet_g5v0d10v5#body = 2.479586e-16
m.xm15.msky130_fd_pr__nfet_g5v0d10v5#dbody = 6.198747e-16
m.xm15.msky130_fd_pr__nfet_g5v0d10v5#sbody = 1.240010e-16
m.xm16.msky130_fd_pr__nfet_g5v0d10v5#body = 4.394470e-11
m.xm16.msky130_fd_pr__nfet_g5v0d10v5#dbody = 7.948100e-11
m.xm16.msky130_fd_pr__nfet_g5v0d10v5#sbody = 5.235311e-11
m.xm17.msky130_fd_pr__pfet_g5v0d10v5#body = 2.300000e+00
m.xm17.msky130_fd_pr__pfet_g5v0d10v5#dbody = 2.300000e+00
m.xm17.msky130_fd_pr__pfet_g5v0d10v5#sbody = 2.300000e+00
m.xm18.msky130_fd_pr__nfet_g5v0d10v5#body = 1.990485e-11
m.xm18.msky130_fd_pr__nfet_g5v0d10v5#dbody = 4.964742e-11
m.xm18.msky130_fd_pr__nfet_g5v0d10v5#sbody = 9.952437e-12
m.xm19.msky130_fd_pr__nfet_g5v0d10v5#body = 1.845203e-11
m.xm19.msky130_fd_pr__nfet_g5v0d10v5#dbody = 3.811227e-11
m.xm19.msky130_fd_pr__nfet_g5v0d10v5#sbody = 1.724381e-11
m.xm20.msky130_fd_pr__nfet_g5v0d10v5#body = 1.126516e-11
m.xm20.msky130_fd_pr__nfet_g5v0d10v5#dbody = 2.816289e-11
m.xm20.msky130_fd_pr__nfet_g5v0d10v5#sbody = 5.632593e-12
m.xm22.msky130_fd_pr__nfet_g5v0d10v5#body = 4.011614e-12
m.xm22.msky130_fd_pr__nfet_g5v0d10v5#dbody = 1.002903e-11
m.xm22.msky130_fd_pr__nfet_g5v0d10v5#sbody = 2.005811e-12
m.xm24.msky130_fd_pr__pfet_g5v0d10v5#body = 2.300000e+00
m.xm24.msky130_fd_pr__pfet_g5v0d10v5#dbody = 2.300000e+00
m.xm24.msky130_fd_pr__pfet_g5v0d10v5#sbody = 2.300000e+00
m.xm26.msky130_fd_pr__pfet_g5v0d10v5#body = 2.300000e+00
m.xm26.msky130_fd_pr__pfet_g5v0d10v5#dbody = 2.300000e+00
m.xm26.msky130_fd_pr__pfet_g5v0d10v5#sbody = 2.300000e+00
mir = 1.153640e+00
net1 = 7.192232e-01
net2 = 1.907973e-05
net3 = 7.788878e-01
net4 = 3.203660e-01
net5 = 1.155104e+00
net6 = 8.990940e-01
net7 = 7.788755e-01
net8 = 1.221321e+00
net9 = 1.237686e+00
net10 = 2.877361e-01
net11 = 1.587672e+00
net12 = 1.587672e+00
net13 = 0.000000e+00
out = 1.587672e+00
pos = 1.187725e+00
q.xq2.qsky130_fd_pr__pnp_05v5_w0p68l0p68#collcx = 2.149809e-03
q.xq3.qsky130_fd_pr__pnp_05v5_w0p68l0p68#collcx = 2.700366e-04
q.xq4.qsky130_fd_pr__pnp_05v5_w0p68l0p68#collcx = 2.700366e-04
q.xq8.qsky130_fd_pr__pnp_05v5_w0p68l0p68#collcx = 2.700366e-04
q.xq10.qsky130_fd_pr__pnp_05v5_w0p68l0p68#collcx = 2.700366e-04
q.xq12.qsky130_fd_pr__pnp_05v5_w0p68l0p68#collcx = 2.700366e-04
q.xq14.qsky130_fd_pr__pnp_05v5_w0p68l0p68#collcx = 2.700366e-04
q.xq16.qsky130_fd_pr__pnp_05v5_w0p68l0p68#collcx = 2.700366e-04
q.xq18.qsky130_fd_pr__pnp_05v5_w0p68l0p68#collcx = 2.700366e-04
vb = 9.010841e-01
vdd = 2.300000e+00
vs#branch = -1.71237e-04
vt#branch = 0.000000e+00
xc1.a = 0.000000e+00
xc1.b1 = 0.000000e+00
xc3.a = 1.587672e+00
xc3.b1 = 1.587672e+00
xr1.xsky130_fd_pr__res_xhigh_po_0p69.ra = 7.863910e-01
xr2.xsky130_fd_pr__res_xhigh_po_0p69.ra = 7.864033e-01
xr3.xsky130_fd_pr__res_xhigh_po_0p69.ra = 5.068610e-03
xr4.xsky130_fd_pr__res_xhigh_po_0p69.ra = 7.217661e-01
xr5.xsky130_fd_pr__res_xhigh_po_0p69.ra = 5.068525e-03
xr6.xsky130_fd_pr__res_xhigh_po_0p69.ra = 7.985986e-03
xr7.xsky130_fd_pr__res_xhigh_po_0p69.ra = 1.587672e+00
xr8.xsky130_fd_pr__res_xhigh_po_0p69.ra = 1.201015e+00
xr9.xsky130_fd_pr__res_xhigh_po_0p69.ra = 1.393485e-02
Doing analysis at TEMP = 27.000000 and TNOM = 27.000000


No. of Data Rows : 91
Note: Starting true gmin stepping
Trying gmin =   1.0000E-03 Note: One successful gmin step
Trying gmin =   1.0000E-04 Note: One successful gmin step
Trying gmin =   1.0000E-05 Note: One successful gmin step
Trying gmin =   1.0000E-06 Note: One successful gmin step
Trying gmin =   1.0000E-07 Note: One successful gmin step
Trying gmin =   1.0000E-08 Warning: Further gmin increment
Trying gmin =   5.6234E-08 Note: One successful gmin step
Trying gmin =   2.3714E-08 Warning: Further gmin increment
Trying gmin =   4.5316E-08 Note: One successful gmin step
Trying gmin =   3.2781E-08 Warning: Further gmin increment
Trying gmin =   4.1792E-08 Note: One successful gmin step
Trying gmin =   3.7013E-08 Note: One successful gmin step
Trying gmin =   3.2781E-08 Note: One successful gmin step
Trying gmin =   2.7323E-08 Note: One successful gmin step
Trying gmin =   2.0791E-08 Note: One successful gmin step
Trying gmin =   1.3800E-08 Note: One successful gmin step
Trying gmin =   7.4632E-09 Note: One successful gmin step
Trying gmin =   2.9681E-09 Note: One successful gmin step
Trying gmin =   7.4438E-10 Note: One successful gmin step
Trying gmin =   9.3493E-11 Note: One successful gmin step
Trying gmin =   9.3493E-12 Note: One successful gmin step
Trying gmin =   1.0000E-12 Note: One successful gmin step
Note: True gmin stepping completed
 Reference value :  2.80000e+00Note: Starting true gmin stepping
Trying gmin =   1.0000E-03 Note: One successful gmin step
Trying gmin =   1.0000E-04 Note: One successful gmin step
Trying gmin =   1.0000E-05 Note: One successful gmin step
Trying gmin =   1.0000E-06 Note: One successful gmin step
Trying gmin =   1.0000E-07 Note: One successful gmin step
Trying gmin =   1.0000E-08 Warning: Further gmin increment
Trying gmin =   5.6234E-08 Note: One successful gmin step
Trying gmin =   2.3714E-08 Note: One successful gmin step
Trying gmin =   1.0000E-08 Note: One successful gmin step
Trying gmin =   2.7384E-09 Warning: Further gmin increment
Trying gmin =   7.2339E-09 Note: One successful gmin step
Trying gmin =   4.4508E-09 Note: One successful gmin step
Trying gmin =   2.1480E-09 Note: One successful gmin step
Trying gmin =   7.2015E-10 Note: One successful gmin step
Trying gmin =   1.3980E-10 Note: One successful gmin step
Trying gmin =   1.3980E-11 Note: One successful gmin step
Trying gmin =   1.3980E-12 Note: One successful gmin step
Trying gmin =   1.0000E-12 Note: One successful gmin step
Note: True gmin stepping completed
 Reference value :  1.28000e+00Note: Starting true gmin stepping
Trying gmin =   1.0000E-03 Note: One successful gmin step
Trying gmin =   1.0000E-04 Note: One successful gmin step
Trying gmin =   1.0000E-05 Note: One successful gmin step
Trying gmin =   1.0000E-06 Note: One successful gmin step
Trying gmin =   1.0000E-07 Note: One successful gmin step
Trying gmin =   1.0000E-08 Warning: Further gmin increment
Trying gmin =   5.6234E-08 Note: One successful gmin step
Trying gmin =   2.3714E-08 Note: One successful gmin step
Trying gmin =   1.0000E-08 Note: One successful gmin step
Trying gmin =   2.7384E-09 Warning: Further gmin increment
Trying gmin =   7.2339E-09 Note: One successful gmin step
Trying gmin =   4.4508E-09 Warning: Further gmin increment
Trying gmin =   6.4068E-09 Note: One successful gmin step
Trying gmin =   5.3400E-09 Note: One successful gmin step
Trying gmin =   4.0634E-09 Note: One successful gmin step
Trying gmin =   2.6972E-09 Note: One successful gmin step
Trying gmin =   1.4586E-09 Note: One successful gmin step
Trying gmin =   5.8008E-10 Note: One successful gmin step
Trying gmin =   1.4548E-10 Note: One successful gmin step
Trying gmin =   1.8272E-11 Note: One successful gmin step
Trying gmin =   1.8272E-12 Note: One successful gmin step
Trying gmin =   1.0000E-12 Note: One successful gmin step
Note: True gmin stepping completed
 Reference value :  5.80000e-01pm                  =  5.215227e+01
Doing analysis at TEMP = 27.000000 and TNOM = 27.000000


No. of Data Rows : 91
psrr100             =  -7.622133e+01
psrr100k            =  -2.786515e+01
Doing analysis at TEMP = 27.000000 and TNOM = 27.000000


No. of Data Rows : 86
temp_coeff = 7.562880e+01
Doing analysis at TEMP = 27.000000 and TNOM = 27.000000


No. of Data Rows : 141
vldo_sup_2          =  1.785840e+00
vldo_sup_2_8        =  1.785750e+00
line_reg = 1.125000e-04
Note: No ".plot", ".print", or ".fourier" lines; no simulations run
vin                 =  1.764104e+00
dropout = 1.040000e-04
